TITLE UH JIRAU POWER FLOW (March/2018) 
* -------------------------------------------------------------------------------- 
* Notes: 
* TO-DO1: capacitors in shunt mode to the circuit breaker. 
* TO-DO2: ... 
* TO-DO3: ... 
* -------------------------------------------------------------------------------- 
* Models 
* A magnetic coupling 13.8kV to 525kV: 
.subckt COUPLING_525K  ( 1 3 )
*1,2: primary nodes 
*2,3: secondary nodes 
*13.8kV to 525kV 
Lsecondary ( 0 3 )  2.894612K
Lprimary ( 0 1 )  2.
K  Lsecondary  Lprimary  0.9999999
.ends COUPLING_525K
* 
*Version 3: 2 independent monophasic transformers in parallel. 
.subckt MONOPHASIC_TRANSFORMER_525K  ( 1 2 3 )
*1,0: primary A 
*2,0: primary B 
*3,0: secondary 
XTEa ( 1 3 )  COUPLING_525K
XTEb ( 2 3 )  COUPLING_525K
.ends MONOPHASIC_TRANSFORMER_525K
* 
* A magnetic coupling 13.8kV to 440V: 
.subckt MONOPHASIC_TRANSFORMER_440  ( 1 2 )
*1,0: primary nodes 
*2,0: secondary nodes 
*13.8kV to 440V 
Lsecondary ( 0 2 )  2.033186
Lprimary ( 0 1 )  2.K
K  Lsecondary  Lprimary  0.9999999
.ends MONOPHASIC_TRANSFORMER_440
* 
* A magnetic coupling where a=1: 
.subckt MONOPHASIC_REGULATOR  ( 1 2 )
*1,0: primary nodes 
*2,0: secondary nodes 
*a=1 
Lsecondary ( 0 2 )  2.K
Lprimary ( 0 1 )  2.K
K  Lsecondary  Lprimary  0.9999999
.ends MONOPHASIC_REGULATOR
* 
* LT1 and LT2: 
.subckt LT_LT1_LT2  ( 1 2 )
***R_LT1_PI ( 1 2 ) COMPLEX( 1.624, 28.765) 
R_LT1_PI ( 1 2 ) COMPLEX( 1.624, 0.)
***R_LT1_PI1 ( 1 0 ) COMPLEX( 0.,-4.05351K) 
***R_LT1_PI2 ( 2 0 ) COMPLEX( 0.,-4.05351K) 
.ends LT_LT1_LT2
* LT3: 
.subckt LT_LT3  ( 1 2 )
***R_LT3_PI ( 1 2 ) COMPLEX( 32.344, 122.882) 
R_LT3_PI ( 1 2 ) COMPLEX( 1.624, 0.)
.ends LT_LT3
* LT4 and LT5: 
.subckt LT_LT45  ( 1 2 )
***R_LT45_PI ( 1 2 ) COMPLEX( 1.624, 0.) 
R_LT45_PI ( 1 2 ) COMPLEX( 100.n, 0.)
.ends LT_LT45
* 
* 
* -------------------------------------------------------------------------------- 
* Netlist: SE MD, SE ME and SE Coletora 

R_D52A1_5 ( 175 176 ) COMPLEX( 100.n, 0.)
R_D52A1_6 ( 166 167 ) COMPLEX( 100.n, 0.)
R_D52BT_1 ( 65 179 ) COMPLEX( 100.n, 0.)
R_D52BT_2 ( 59 181 ) COMPLEX( 100.n, 0.)
R_D52C1_4 ( 168 163 ) COMPLEX( 100.n, 0.)
R_D52C1_5 ( 173 172 ) COMPLEX( 100.n, 0.)
R_D52C1_6 ( 164 162 ) COMPLEX( 100.n, 0.)
R_D52G_1 ( 110 229 ) COMPLEX( 100.n, 0.)
R_D52G_10 ( 115 235 ) COMPLEX( 100.n, 0.)
R_D52G_11 ( 113 236 ) COMPLEX( 100.n, 0.)
R_D52G_12 ( 112 237 ) COMPLEX( 100.n, 0.)
R_D52G_13 ( 122 238 ) COMPLEX( 100.n, 0.)
R_D52G_14 ( 121 239 ) COMPLEX( 100.n, 0.)
R_D52G_15 ( 119 240 ) COMPLEX( 100.n, 0.)
R_D52G_16 ( 118 241 ) COMPLEX( 100.n, 0.)
R_D52G_17 ( 128 223 ) COMPLEX( 100.n, 0.)
R_D52G_18 ( 127 224 ) COMPLEX( 100.n, 0.)
R_D52G_19 ( 125 225 ) COMPLEX( 100.n, 0.)
R_D52G_2 ( 109 228 ) COMPLEX( 100.n, 0.)
R_D52G_20 ( 124 222 ) COMPLEX( 100.n, 0.)
R_D52G_21 ( 200 134 ) COMPLEX( 100.n, 0.)
R_D52G_22 ( 133 201 ) COMPLEX( 100.n, 0.)
R_D52G_23 ( 202 131 ) COMPLEX( 100.n, 0.)
R_D52G_24 ( 130 203 ) COMPLEX( 100.n, 0.)
R_D52G_25 ( 140 196 ) COMPLEX( 100.n, 0.)
R_D52G_26 ( 139 197 ) COMPLEX( 100.n, 0.)
R_D52G_27 ( 137 198 ) COMPLEX( 100.n, 0.)
R_D52G_28 ( 136 199 ) COMPLEX( 100.n, 0.)
R_D52G_29 ( 221 158 ) COMPLEX( 100.n, 0.)
R_D52G_3 ( 107 227 ) COMPLEX( 100.n, 0.)
R_D52G_30 ( 220 157 ) COMPLEX( 100.n, 0.)
R_D52G_31 ( 155 219 ) COMPLEX( 100.n, 0.)
R_D52G_32 ( 218 154 ) COMPLEX( 100.n, 0.)
R_D52G_33 ( 217 152 ) COMPLEX( 100.n, 0.)
R_D52G_34 ( 216 151 ) COMPLEX( 100.n, 0.)
R_D52G_35 ( 215 149 ) COMPLEX( 100.n, 0.)
R_D52G_36 ( 214 148 ) COMPLEX( 100.n, 0.)
R_D52G_37 ( 146 213 ) COMPLEX( 100.n, 0.)
R_D52G_38 ( 212 145 ) COMPLEX( 100.n, 0.)
R_D52G_39 ( 143 211 ) COMPLEX( 100.n, 0.)
R_D52G_4 ( 106 226 ) COMPLEX( 100.n, 0.)
R_D52G_40 ( 210 142 ) COMPLEX( 100.n, 0.)
R_D52G_41 ( 192 98 ) COMPLEX( 100.n, 0.)
R_D52G_42 ( 97 193 ) COMPLEX( 100.n, 0.)
R_D52G_43 ( 194 95 ) COMPLEX( 100.n, 0.)
R_D52G_44 ( 94 195 ) COMPLEX( 100.n, 0.)
R_D52G_45 ( 92 209 ) COMPLEX( 100.n, 0.)
R_D52G_46 ( 208 91 ) COMPLEX( 100.n, 0.)
R_D52G_47 ( 89 207 ) COMPLEX( 100.n, 0.)
R_D52G_48 ( 206 88 ) COMPLEX( 100.n, 0.)
R_D52G_49 ( 86 205 ) COMPLEX( 100.n, 0.)
R_D52G_5 ( 104 233 ) COMPLEX( 100.n, 0.)
R_D52G_50 ( 84 204 ) COMPLEX( 100.n, 0.)
R_D52G_6 ( 103 232 ) COMPLEX( 100.n, 0.)
R_D52G_7 ( 101 231 ) COMPLEX( 100.n, 0.)
R_D52G_8 ( 100 230 ) COMPLEX( 100.n, 0.)
R_D52G_9 ( 116 234 ) COMPLEX( 100.n, 0.)
R_D52L_1 ( 72 186 ) COMPLEX( 100.n, 0.)
R_D52L_2 ( 64 185 ) COMPLEX( 100.n, 0.)
R_D52L_3 ( 57 184 ) COMPLEX( 100.n, 0.)
R_D52L_4 ( 0 0 ) COMPLEX( 1.E+12, 0.)
R_D52L_5 ( 60 188 ) COMPLEX( 100.n, 0.)
R_D52RE0_1 ( 0 0 ) COMPLEX( 1.E+12, 0.)
R_D52T_1 ( 243 70 ) COMPLEX( 100.n, 0.)
R_D52T_10 ( 78 252 ) COMPLEX( 100.n, 0.)
R_D52T_11 ( 251 82 ) COMPLEX( 100.n, 0.)
R_D52T_12 ( 248 159 ) COMPLEX( 100.n, 0.)
R_D52T_13 ( 160 246 ) COMPLEX( 100.n, 0.)
R_D52T_2 ( 245 71 ) COMPLEX( 100.n, 0.)
R_D52T_3 ( 267 68 ) COMPLEX( 100.n, 0.)
R_D52T_4 ( 264 67 ) COMPLEX( 100.n, 0.)
R_D52T_5 ( 262 74 ) COMPLEX( 100.n, 0.)
R_D52T_6 ( 75 261 ) COMPLEX( 100.n, 0.)
R_D52T_7 ( 258 76 ) COMPLEX( 100.n, 0.)
R_D52T_8 ( 256 80 ) COMPLEX( 100.n, 0.)
R_D52T_9 ( 79 254 ) COMPLEX( 100.n, 0.)
R_S57B1_1 ( 0 0 ) COMPLEX( 1.E+12, 0.)
R_S57B1_2 ( 0 0 ) COMPLEX( 1.E+12, 0.)
R_S57B2_1 ( 0 0 ) COMPLEX( 1.E+12, 0.)
R_S57B2_2 ( 0 0 ) COMPLEX( 1.E+12, 0.)
R_S57B3_1 ( 0 0 ) COMPLEX( 1.E+12, 0.)
R_S57B3_2 ( 0 0 ) COMPLEX( 1.E+12, 0.)
R_S57B4_1 ( 0 0 ) COMPLEX( 1.E+12, 0.)
R_S57B4_2 ( 0 0 ) COMPLEX( 1.E+12, 0.)
R_S57BT1_1 ( 0 0 ) COMPLEX( 1.E+12, 0.)
R_S57BT1_2 ( 0 0 ) COMPLEX( 1.E+12, 0.)
R_S57BT2_1 ( 0 0 ) COMPLEX( 1.E+12, 0.)
R_S57BT2_2 ( 0 0 ) COMPLEX( 1.E+12, 0.)
R_S57L1_1 ( 0 0 ) COMPLEX( 1.E+12, 0.)
R_S57L1_2 ( 0 0 ) COMPLEX( 1.E+12, 0.)
R_S57L1_3 ( 0 0 ) COMPLEX( 1.E+12, 0.)
R_S57L1_4 ( 0 0 ) COMPLEX( 1.E+12, 0.)
R_S57L1_5 ( 0 0 ) COMPLEX( 1.E+12, 0.)
R_S57L2_1 ( 0 0 ) COMPLEX( 1.E+12, 0.)
R_S57L2_2 ( 0 0 ) COMPLEX( 1.E+12, 0.)
R_S57L2_3 ( 0 0 ) COMPLEX( 1.E+12, 0.)
R_S57L2_4 ( 0 0 ) COMPLEX( 1.E+12, 0.)
R_S57L2_5 ( 0 0 ) COMPLEX( 1.E+12, 0.)
R_S57L3_1 ( 0 0 ) COMPLEX( 1.E+12, 0.)
R_S57L3_2 ( 0 0 ) COMPLEX( 1.E+12, 0.)
R_S57L3_3 ( 0 0 ) COMPLEX( 1.E+12, 0.)
R_S57L3_4 ( 0 0 ) COMPLEX( 1.E+12, 0.)
R_S57L3_5 ( 0 0 ) COMPLEX( 1.E+12, 0.)
R_S57LA1_4 ( 0 0 ) COMPLEX( 1.E+12, 0.)
R_S57LA1_5 ( 0 0 ) COMPLEX( 1.E+12, 0.)
R_S57LA1_6 ( 0 0 ) COMPLEX( 1.E+12, 0.)
R_S57T1_1 ( 0 0 ) COMPLEX( 1.E+12, 0.)
R_S57T1_10 ( 0 0 ) COMPLEX( 1.E+12, 0.)
R_S57T1_11 ( 0 0 ) COMPLEX( 1.E+12, 0.)
R_S57T1_12 ( 0 0 ) COMPLEX( 1.E+12, 0.)
R_S57T1_13 ( 0 0 ) COMPLEX( 1.E+12, 0.)
R_S57T1_2 ( 0 0 ) COMPLEX( 1.E+12, 0.)
R_S57T1_3 ( 0 0 ) COMPLEX( 1.E+12, 0.)
R_S57T1_4 ( 0 0 ) COMPLEX( 1.E+12, 0.)
R_S57T1_5 ( 0 0 ) COMPLEX( 1.E+12, 0.)
R_S57T1_6 ( 0 0 ) COMPLEX( 1.E+12, 0.)
R_S57T1_7 ( 0 0 ) COMPLEX( 1.E+12, 0.)
R_S57T1_8 ( 0 0 ) COMPLEX( 1.E+12, 0.)
R_S57T1_9 ( 0 0 ) COMPLEX( 1.E+12, 0.)
R_S57T2_1 ( 0 0 ) COMPLEX( 1.E+12, 0.)
R_S57T2_10 ( 0 0 ) COMPLEX( 1.E+12, 0.)
R_S57T2_11 ( 0 0 ) COMPLEX( 1.E+12, 0.)
R_S57T2_12 ( 0 0 ) COMPLEX( 1.E+12, 0.)
R_S57T2_13 ( 0 0 ) COMPLEX( 1.E+12, 0.)
R_S57T2_2 ( 0 0 ) COMPLEX( 1.E+12, 0.)
R_S57T2_3 ( 0 0 ) COMPLEX( 1.E+12, 0.)
R_S57T2_4 ( 0 0 ) COMPLEX( 1.E+12, 0.)
R_S57T2_5 ( 0 0 ) COMPLEX( 1.E+12, 0.)
R_S57T2_6 ( 0 0 ) COMPLEX( 1.E+12, 0.)
R_S57T2_7 ( 0 0 ) COMPLEX( 1.E+12, 0.)
R_S57T2_8 ( 0 0 ) COMPLEX( 1.E+12, 0.)
R_S57T2_9 ( 0 0 ) COMPLEX( 1.E+12, 0.)
R_S57T3_1 ( 0 0 ) COMPLEX( 1.E+12, 0.)
R_S57T3_10 ( 0 0 ) COMPLEX( 1.E+12, 0.)
R_S57T3_11 ( 0 0 ) COMPLEX( 1.E+12, 0.)
R_S57T3_12 ( 0 0 ) COMPLEX( 1.E+12, 0.)
R_S57T3_13 ( 0 0 ) COMPLEX( 1.E+12, 0.)
R_S57T3_2 ( 0 0 ) COMPLEX( 1.E+12, 0.)
R_S57T3_3 ( 0 0 ) COMPLEX( 1.E+12, 0.)
R_S57T3_4 ( 0 0 ) COMPLEX( 1.E+12, 0.)
R_S57T3_5 ( 0 0 ) COMPLEX( 1.E+12, 0.)
R_S57T3_6 ( 0 0 ) COMPLEX( 1.E+12, 0.)
R_S57T3_7 ( 0 0 ) COMPLEX( 1.E+12, 0.)
R_S57T3_8 ( 0 0 ) COMPLEX( 1.E+12, 0.)
R_S57T3_9 ( 0 0 ) COMPLEX( 1.E+12, 0.)
R_S57TA_1 ( 0 0 ) COMPLEX( 1.E+12, 0.)
R_S57TA_10 ( 0 0 ) COMPLEX( 1.E+12, 0.)
R_S57TA_11 ( 0 0 ) COMPLEX( 1.E+12, 0.)
R_S57TA_12 ( 0 0 ) COMPLEX( 1.E+12, 0.)
R_S57TA_13 ( 0 0 ) COMPLEX( 1.E+12, 0.)
R_S57TA_14 ( 0 0 ) COMPLEX( 1.E+12, 0.)
R_S57TA_15 ( 0 0 ) COMPLEX( 1.E+12, 0.)
R_S57TA_16 ( 0 0 ) COMPLEX( 1.E+12, 0.)
R_S57TA_17 ( 0 0 ) COMPLEX( 1.E+12, 0.)
R_S57TA_18 ( 0 0 ) COMPLEX( 1.E+12, 0.)
R_S57TA_19 ( 0 0 ) COMPLEX( 1.E+12, 0.)
R_S57TA_2 ( 0 0 ) COMPLEX( 1.E+12, 0.)
R_S57TA_20 ( 0 0 ) COMPLEX( 1.E+12, 0.)
R_S57TA_21 ( 0 0 ) COMPLEX( 1.E+12, 0.)
R_S57TA_22 ( 0 0 ) COMPLEX( 1.E+12, 0.)
R_S57TA_23 ( 0 0 ) COMPLEX( 1.E+12, 0.)
R_S57TA_24 ( 0 0 ) COMPLEX( 1.E+12, 0.)
R_S57TA_25 ( 0 0 ) COMPLEX( 1.E+12, 0.)
R_S57TA_26 ( 0 0 ) COMPLEX( 1.E+12, 0.)
R_S57TA_27 ( 0 0 ) COMPLEX( 1.E+12, 0.)
R_S57TA_28 ( 0 0 ) COMPLEX( 1.E+12, 0.)
R_S57TA_29 ( 0 0 ) COMPLEX( 1.E+12, 0.)
R_S57TA_3 ( 0 0 ) COMPLEX( 1.E+12, 0.)
R_S57TA_30 ( 0 0 ) COMPLEX( 1.E+12, 0.)
R_S57TA_31 ( 0 0 ) COMPLEX( 1.E+12, 0.)
R_S57TA_32 ( 0 0 ) COMPLEX( 1.E+12, 0.)
R_S57TA_33 ( 0 0 ) COMPLEX( 1.E+12, 0.)
R_S57TA_34 ( 0 0 ) COMPLEX( 1.E+12, 0.)
R_S57TA_35 ( 0 0 ) COMPLEX( 1.E+12, 0.)
R_S57TA_36 ( 0 0 ) COMPLEX( 1.E+12, 0.)
R_S57TA_37 ( 0 0 ) COMPLEX( 1.E+12, 0.)
R_S57TA_38 ( 0 0 ) COMPLEX( 1.E+12, 0.)
R_S57TA_39 ( 0 0 ) COMPLEX( 1.E+12, 0.)
R_S57TA_4 ( 0 0 ) COMPLEX( 1.E+12, 0.)
R_S57TA_40 ( 0 0 ) COMPLEX( 1.E+12, 0.)
R_S57TA_41 ( 0 0 ) COMPLEX( 1.E+12, 0.)
R_S57TA_42 ( 0 0 ) COMPLEX( 1.E+12, 0.)
R_S57TA_43 ( 0 0 ) COMPLEX( 1.E+12, 0.)
R_S57TA_44 ( 0 0 ) COMPLEX( 1.E+12, 0.)
R_S57TA_45 ( 0 0 ) COMPLEX( 1.E+12, 0.)
R_S57TA_46 ( 0 0 ) COMPLEX( 1.E+12, 0.)
R_S57TA_47 ( 0 0 ) COMPLEX( 1.E+12, 0.)
R_S57TA_48 ( 0 0 ) COMPLEX( 1.E+12, 0.)
R_S57TA_49 ( 0 0 ) COMPLEX( 1.E+12, 0.)
R_S57TA_5 ( 0 0 ) COMPLEX( 1.E+12, 0.)
R_S57TA_50 ( 0 0 ) COMPLEX( 1.E+12, 0.)
R_S57TA_6 ( 0 0 ) COMPLEX( 1.E+12, 0.)
R_S57TA_7 ( 0 0 ) COMPLEX( 1.E+12, 0.)
R_S57TA_8 ( 0 0 ) COMPLEX( 1.E+12, 0.)
R_S57TA_9 ( 0 0 ) COMPLEX( 1.E+12, 0.)
R_S57TB_1 ( 0 0 ) COMPLEX( 1.E+12, 0.)
R_S57TB_10 ( 0 0 ) COMPLEX( 1.E+12, 0.)
R_S57TB_11 ( 0 0 ) COMPLEX( 1.E+12, 0.)
R_S57TB_12 ( 0 0 ) COMPLEX( 1.E+12, 0.)
R_S57TB_13 ( 0 0 ) COMPLEX( 1.E+12, 0.)
R_S57TB_14 ( 0 0 ) COMPLEX( 1.E+12, 0.)
R_S57TB_15 ( 0 0 ) COMPLEX( 1.E+12, 0.)
R_S57TB_16 ( 0 0 ) COMPLEX( 1.E+12, 0.)
R_S57TB_17 ( 0 0 ) COMPLEX( 1.E+12, 0.)
R_S57TB_18 ( 0 0 ) COMPLEX( 1.E+12, 0.)
R_S57TB_19 ( 0 0 ) COMPLEX( 1.E+12, 0.)
R_S57TB_2 ( 0 0 ) COMPLEX( 1.E+12, 0.)
R_S57TB_20 ( 0 0 ) COMPLEX( 1.E+12, 0.)
R_S57TB_21 ( 0 0 ) COMPLEX( 1.E+12, 0.)
R_S57TB_22 ( 0 0 ) COMPLEX( 1.E+12, 0.)
R_S57TB_23 ( 0 0 ) COMPLEX( 1.E+12, 0.)
R_S57TB_24 ( 0 0 ) COMPLEX( 1.E+12, 0.)
R_S57TB_25 ( 0 0 ) COMPLEX( 1.E+12, 0.)
R_S57TB_26 ( 0 0 ) COMPLEX( 1.E+12, 0.)
R_S57TB_27 ( 0 0 ) COMPLEX( 1.E+12, 0.)
R_S57TB_28 ( 0 0 ) COMPLEX( 1.E+12, 0.)
R_S57TB_29 ( 0 0 ) COMPLEX( 1.E+12, 0.)
R_S57TB_3 ( 0 0 ) COMPLEX( 1.E+12, 0.)
R_S57TB_30 ( 0 0 ) COMPLEX( 1.E+12, 0.)
R_S57TB_31 ( 0 0 ) COMPLEX( 1.E+12, 0.)
R_S57TB_32 ( 0 0 ) COMPLEX( 1.E+12, 0.)
R_S57TB_33 ( 0 0 ) COMPLEX( 1.E+12, 0.)
R_S57TB_34 ( 0 0 ) COMPLEX( 1.E+12, 0.)
R_S57TB_35 ( 0 0 ) COMPLEX( 1.E+12, 0.)
R_S57TB_36 ( 0 0 ) COMPLEX( 1.E+12, 0.)
R_S57TB_37 ( 0 0 ) COMPLEX( 1.E+12, 0.)
R_S57TB_38 ( 0 0 ) COMPLEX( 1.E+12, 0.)
R_S57TB_39 ( 0 0 ) COMPLEX( 1.E+12, 0.)
R_S57TB_4 ( 0 0 ) COMPLEX( 1.E+12, 0.)
R_S57TB_40 ( 0 0 ) COMPLEX( 1.E+12, 0.)
R_S57TB_41 ( 0 0 ) COMPLEX( 1.E+12, 0.)
R_S57TB_42 ( 0 0 ) COMPLEX( 1.E+12, 0.)
R_S57TB_43 ( 0 0 ) COMPLEX( 1.E+12, 0.)
R_S57TB_44 ( 0 0 ) COMPLEX( 1.E+12, 0.)
R_S57TB_45 ( 0 0 ) COMPLEX( 1.E+12, 0.)
R_S57TB_46 ( 0 0 ) COMPLEX( 1.E+12, 0.)
R_S57TB_47 ( 0 0 ) COMPLEX( 1.E+12, 0.)
R_S57TB_48 ( 0 0 ) COMPLEX( 1.E+12, 0.)
R_S57TB_49 ( 0 0 ) COMPLEX( 1.E+12, 0.)
R_S57TB_5 ( 0 0 ) COMPLEX( 1.E+12, 0.)
R_S57TB_50 ( 0 0 ) COMPLEX( 1.E+12, 0.)
R_S57TB_6 ( 0 0 ) COMPLEX( 1.E+12, 0.)
R_S57TB_7 ( 0 0 ) COMPLEX( 1.E+12, 0.)
R_S57TB_8 ( 0 0 ) COMPLEX( 1.E+12, 0.)
R_S57TB_9 ( 0 0 ) COMPLEX( 1.E+12, 0.)
R_S89A1_4 ( 171 51 ) COMPLEX( 100.n, 0.)
R_S89A1_5 ( 0 0 ) COMPLEX( 1.E+12, 0.)
R_S89A1_6 ( 0 0 ) COMPLEX( 1.E+12, 0.)
R_S89AC1_4 ( 169 170 ) COMPLEX( 100.n, 0.)
R_S89AC1_5 ( 174 175 ) COMPLEX( 100.n, 0.)
R_S89AC1_6 ( 165 166 ) COMPLEX( 100.n, 0.)
R_S89B1_1 ( 63 180 ) COMPLEX( 100.n, 0.)
R_S89B1_2 ( 190 69 ) COMPLEX( 100.n, 0.)
R_S89B2_1 ( 180 191 ) COMPLEX( 100.n, 0.)
R_S89B2_2 ( 66 190 ) COMPLEX( 100.n, 0.)
R_S89B3_1 ( 0 0 ) COMPLEX( 1.E+12, 0.)
R_S89B3_2 ( 0 0 ) COMPLEX( 1.E+12, 0.)
R_S89B4_1 ( 56 182 ) COMPLEX( 100.n, 0.)
R_S89B4_2 ( 178 183 ) COMPLEX( 100.n, 0.)
R_S89B5_1 ( 56 177 ) COMPLEX( 100.n, 0.)
R_S89B5_2 ( 81 178 ) COMPLEX( 100.n, 0.)
R_S89B6_1 ( 61 191 ) COMPLEX( 100.n, 0.)
R_S89B6_2 ( 73 66 ) COMPLEX( 100.n, 0.)
R_S89BTA_1 ( 179 180 ) COMPLEX( 100.n, 0.)
R_S89BTA_2 ( 181 182 ) COMPLEX( 100.n, 0.)
R_S89BTB_1 ( 65 190 ) COMPLEX( 100.n, 0.)
R_S89BTB_2 ( 59 183 ) COMPLEX( 100.n, 0.)
R_S89CA1_4 ( 168 169 ) COMPLEX( 100.n, 0.)
R_S89CA1_5 ( 173 174 ) COMPLEX( 100.n, 0.)
R_S89CA1_6 ( 164 165 ) COMPLEX( 100.n, 0.)
R_S89CB1_4 ( 163 50 ) COMPLEX( 100.n, 0.)
R_S89CB1_5 ( 50 172 ) COMPLEX( 100.n, 0.)
R_S89CB1_6 ( 162 50 ) COMPLEX( 100.n, 0.)
R_S89G_1 ( 229 108 ) COMPLEX( 100.n, 0.)
R_S89G_10 ( 235 114 ) COMPLEX( 100.n, 0.)
R_S89G_11 ( 236 111 ) COMPLEX( 100.n, 0.)
R_S89G_12 ( 237 111 ) COMPLEX( 100.n, 0.)
R_S89G_13 ( 238 120 ) COMPLEX( 100.n, 0.)
R_S89G_14 ( 239 120 ) COMPLEX( 100.n, 0.)
R_S89G_15 ( 240 117 ) COMPLEX( 100.n, 0.)
R_S89G_16 ( 241 117 ) COMPLEX( 100.n, 0.)
R_S89G_17 ( 223 126 ) COMPLEX( 100.n, 0.)
R_S89G_18 ( 224 126 ) COMPLEX( 100.n, 0.)
R_S89G_19 ( 225 123 ) COMPLEX( 100.n, 0.)
R_S89G_2 ( 228 108 ) COMPLEX( 100.n, 0.)
R_S89G_20 ( 222 123 ) COMPLEX( 100.n, 0.)
R_S89G_21 ( 132 200 ) COMPLEX( 100.n, 0.)
R_S89G_22 ( 201 132 ) COMPLEX( 100.n, 0.)
R_S89G_23 ( 129 202 ) COMPLEX( 100.n, 0.)
R_S89G_24 ( 129 203 ) COMPLEX( 100.n, 0.)
R_S89G_25 ( 196 138 ) COMPLEX( 100.n, 0.)
R_S89G_26 ( 197 138 ) COMPLEX( 100.n, 0.)
R_S89G_27 ( 198 135 ) COMPLEX( 100.n, 0.)
R_S89G_28 ( 199 135 ) COMPLEX( 100.n, 0.)
R_S89G_29 ( 156 221 ) COMPLEX( 100.n, 0.)
R_S89G_3 ( 227 105 ) COMPLEX( 100.n, 0.)
R_S89G_30 ( 156 220 ) COMPLEX( 100.n, 0.)
R_S89G_31 ( 219 153 ) COMPLEX( 100.n, 0.)
R_S89G_32 ( 153 218 ) COMPLEX( 100.n, 0.)
R_S89G_33 ( 150 217 ) COMPLEX( 100.n, 0.)
R_S89G_34 ( 150 216 ) COMPLEX( 100.n, 0.)
R_S89G_35 ( 147 215 ) COMPLEX( 100.n, 0.)
R_S89G_36 ( 147 214 ) COMPLEX( 100.n, 0.)
R_S89G_37 ( 213 144 ) COMPLEX( 100.n, 0.)
R_S89G_38 ( 144 212 ) COMPLEX( 100.n, 0.)
R_S89G_39 ( 211 141 ) COMPLEX( 100.n, 0.)
R_S89G_4 ( 226 105 ) COMPLEX( 100.n, 0.)
R_S89G_40 ( 141 210 ) COMPLEX( 100.n, 0.)
R_S89G_41 ( 96 192 ) COMPLEX( 100.n, 0.)
R_S89G_42 ( 193 96 ) COMPLEX( 100.n, 0.)
R_S89G_43 ( 93 194 ) COMPLEX( 100.n, 0.)
R_S89G_44 ( 93 195 ) COMPLEX( 100.n, 0.)
R_S89G_45 ( 209 90 ) COMPLEX( 100.n, 0.)
R_S89G_46 ( 90 208 ) COMPLEX( 100.n, 0.)
R_S89G_47 ( 207 87 ) COMPLEX( 100.n, 0.)
R_S89G_48 ( 87 206 ) COMPLEX( 100.n, 0.)
R_S89G_49 ( 205 85 ) COMPLEX( 100.n, 0.)
R_S89G_5 ( 233 102 ) COMPLEX( 100.n, 0.)
R_S89G_50 ( 83 204 ) COMPLEX( 100.n, 0.)
R_S89G_6 ( 232 102 ) COMPLEX( 100.n, 0.)
R_S89G_7 ( 231 99 ) COMPLEX( 100.n, 0.)
R_S89G_8 ( 230 99 ) COMPLEX( 100.n, 0.)
R_S89G_9 ( 234 114 ) COMPLEX( 100.n, 0.)
R_S89LA_1 ( 72 63 ) COMPLEX( 100.n, 0.)
R_S89LA_2 ( 64 63 ) COMPLEX( 100.n, 0.)
R_S89LA_3 ( 56 57 ) COMPLEX( 100.n, 0.)
R_S89LA_4 ( 62 61 ) COMPLEX( 100.n, 0.)
R_S89LA_5 ( 60 58 ) COMPLEX( 100.n, 0.)
R_S89LA1_4 ( 269 169 ) COMPLEX( 100.n, 0.)
R_S89LA1_5 ( 270 174 ) COMPLEX( 100.n, 0.)
R_S89LA1_6 ( 268 165 ) COMPLEX( 100.n, 0.)
R_S89LB_1 ( 0 0 ) COMPLEX( 1.E+12, 0.)
R_S89LB_2 ( 0 0 ) COMPLEX( 1.E+12, 0.)
R_S89LB_3 ( 0 0 ) COMPLEX( 1.E+12, 0.)
R_S89LB_4 ( 62 73 ) COMPLEX( 100.n, 0.)
R_S89LB_5 ( 60 77 ) COMPLEX( 100.n, 0.)
R_S89LC_1 ( 53 186 ) COMPLEX( 100.n, 0.)
R_S89LC_2 ( 54 185 ) COMPLEX( 100.n, 0.)
R_S89LC_3 ( 52 184 ) COMPLEX( 100.n, 0.)
R_S89LC_4 ( 187 189 ) COMPLEX( 100.n, 0.)
R_S89LC_5 ( 3594 188 ) COMPLEX( 100.n, 0.)
R_S89LE_1 ( 53 63 ) COMPLEX( 100.n, 0.)
R_S89LE_2 ( 54 63 ) COMPLEX( 100.n, 0.)
R_S89LE_3 ( 56 52 ) COMPLEX( 100.n, 0.)
R_S89LE_4 ( 0 0 ) COMPLEX( 1.E+12, 0.)
R_S89LE_5 ( 3594 58 ) COMPLEX( 100.n, 0.)
R_S89RE1_4 ( 0 0 ) COMPLEX( 1.E+12, 0.)
R_S89RE1_5 ( 270 55 ) COMPLEX( 100.n, 0.)
R_S89RE1_6 ( 0 0 ) COMPLEX( 1.E+12, 0.)
R_S89TA_1 ( 0 0 ) COMPLEX( 1.E+12, 0.)
R_S89TA_10 ( 0 0 ) COMPLEX( 1.E+12, 0.)
R_S89TA_11 ( 0 0 ) COMPLEX( 1.E+12, 0.)
R_S89TA_12 ( 0 0 ) COMPLEX( 1.E+12, 0.)
R_S89TA_13 ( 0 0 ) COMPLEX( 1.E+12, 0.)
R_S89TA_2 ( 0 0 ) COMPLEX( 1.E+12, 0.)
R_S89TA_3 ( 0 0 ) COMPLEX( 1.E+12, 0.)
R_S89TA_4 ( 0 0 ) COMPLEX( 1.E+12, 0.)
R_S89TA_5 ( 0 0 ) COMPLEX( 1.E+12, 0.)
R_S89TA_6 ( 0 0 ) COMPLEX( 1.E+12, 0.)
R_S89TA_7 ( 0 0 ) COMPLEX( 1.E+12, 0.)
R_S89TA_8 ( 0 0 ) COMPLEX( 1.E+12, 0.)
R_S89TA_9 ( 0 0 ) COMPLEX( 1.E+12, 0.)
R_S89TB_1 ( 70 69 ) COMPLEX( 100.n, 0.)
R_S89TB_10 ( 77 78 ) COMPLEX( 100.n, 0.)
R_S89TB_11 ( 81 82 ) COMPLEX( 100.n, 0.)
R_S89TB_12 ( 81 159 ) COMPLEX( 100.n, 0.)
R_S89TB_13 ( 81 160 ) COMPLEX( 100.n, 0.)
R_S89TB_2 ( 71 69 ) COMPLEX( 100.n, 0.)
R_S89TB_3 ( 68 66 ) COMPLEX( 100.n, 0.)
R_S89TB_4 ( 67 66 ) COMPLEX( 100.n, 0.)
R_S89TB_5 ( 74 73 ) COMPLEX( 100.n, 0.)
R_S89TB_6 ( 75 73 ) COMPLEX( 100.n, 0.)
R_S89TB_7 ( 76 73 ) COMPLEX( 100.n, 0.)
R_S89TB_8 ( 77 80 ) COMPLEX( 100.n, 0.)
R_S89TB_9 ( 77 79 ) COMPLEX( 100.n, 0.)
R_S89TC_1 ( 243 242 ) COMPLEX( 100.n, 0.)
R_S89TC_10 ( 252 253 ) COMPLEX( 100.n, 0.)
R_S89TC_11 ( 251 250 ) COMPLEX( 100.n, 0.)
R_S89TC_12 ( 248 249 ) COMPLEX( 100.n, 0.)
R_S89TC_13 ( 246 247 ) COMPLEX( 100.n, 0.)
R_S89TC_2 ( 245 244 ) COMPLEX( 100.n, 0.)
R_S89TC_3 ( 267 266 ) COMPLEX( 100.n, 0.)
R_S89TC_4 ( 264 265 ) COMPLEX( 100.n, 0.)
R_S89TC_5 ( 262 263 ) COMPLEX( 100.n, 0.)
R_S89TC_6 ( 261 260 ) COMPLEX( 100.n, 0.)
R_S89TC_7 ( 258 259 ) COMPLEX( 100.n, 0.)
R_S89TC_8 ( 256 257 ) COMPLEX( 100.n, 0.)
R_S89TC_9 ( 254 255 ) COMPLEX( 100.n, 0.)
***R_LT45_METER ( 3594 187 ) COMPLEX( 100.n , 0.) 
X_LT45 ( 3602 3601 )  LT_LT45
R_LT45_METER ( 187 3601 ) COMPLEX( 100.n, 0.)
R_LT45_METER1 ( 3594 3602 ) COMPLEX( 100.n, 0.)
****** 
* Internal current source resistance: 
R_UG01 ( 0 8 ) COMPLEX( 100.n, 0.)
R_UG02 ( 0 7 ) COMPLEX( 100.n, 0.)
R_UG03 ( 0 9 ) COMPLEX( 100.n, 0.)
R_UG04 ( 0 6 ) COMPLEX( 100.n, 0.)
****** 
* Internal voltage source resistance: 
R_UG05 ( 0 4 ) COMPLEX( 100.n, 0.)
R_UG06 ( 0 3 ) COMPLEX( 100.n, 0.)
R_UG07 ( 0 5 ) COMPLEX( 100.n, 0.)
R_UG08 ( 0 2 ) COMPLEX( 100.n, 0.)
R_UG09 ( 0 12 ) COMPLEX( 100.n, 0.)
R_UG10 ( 0 11 ) COMPLEX( 100.n, 0.)
R_UG11 ( 0 13 ) COMPLEX( 100.n, 0.)
R_UG12 ( 0 10 ) COMPLEX( 100.n, 0.)
R_UG13 ( 0 16 ) COMPLEX( 100.n, 0.)
R_UG14 ( 0 15 ) COMPLEX( 100.n, 0.)
R_UG15 ( 0 17 ) COMPLEX( 100.n, 0.)
R_UG16 ( 0 14 ) COMPLEX( 100.n, 0.)
R_UG17 ( 0 20 ) COMPLEX( 100.n, 0.)
R_UG18 ( 0 19 ) COMPLEX( 100.n, 0.)
R_UG19 ( 0 21 ) COMPLEX( 100.n, 0.)
R_UG20 ( 0 18 ) COMPLEX( 100.n, 0.)
R_UG21 ( 0 24 ) COMPLEX( 100.n, 0.)
R_UG22 ( 0 23 ) COMPLEX( 100.n, 0.)
R_UG23 ( 0 25 ) COMPLEX( 100.n, 0.)
R_UG24 ( 0 22 ) COMPLEX( 100.n, 0.)
R_UG25 ( 0 28 ) COMPLEX( 100.n, 0.)
R_UG26 ( 0 27 ) COMPLEX( 100.n, 0.)
R_UG27 ( 0 29 ) COMPLEX( 100.n, 0.)
R_UG28 ( 0 26 ) COMPLEX( 100.n, 0.)
R_UG29 ( 0 32 ) COMPLEX( 100.n, 0.)
R_UG30 ( 0 31 ) COMPLEX( 100.n, 0.)
R_UG31 ( 0 33 ) COMPLEX( 100.n, 0.)
R_UG32 ( 0 30 ) COMPLEX( 100.n, 0.)
R_UG33 ( 0 36 ) COMPLEX( 100.n, 0.)
R_UG34 ( 0 35 ) COMPLEX( 100.n, 0.)
R_UG35 ( 0 37 ) COMPLEX( 100.n, 0.)
R_UG36 ( 0 34 ) COMPLEX( 100.n, 0.)
R_UG37 ( 0 40 ) COMPLEX( 100.n, 0.)
R_UG38 ( 0 39 ) COMPLEX( 100.n, 0.)
R_UG39 ( 0 41 ) COMPLEX( 100.n, 0.)
R_UG40 ( 0 38 ) COMPLEX( 100.n, 0.)
R_UG41 ( 0 44 ) COMPLEX( 100.n, 0.)
R_UG42 ( 0 43 ) COMPLEX( 100.n, 0.)
R_UG43 ( 0 45 ) COMPLEX( 100.n, 0.)
R_UG44 ( 0 42 ) COMPLEX( 100.n, 0.)
R_UG45 ( 0 48 ) COMPLEX( 100.n, 0.)
R_UG46 ( 0 47 ) COMPLEX( 100.n, 0.)
R_UG47 ( 0 49 ) COMPLEX( 100.n, 0.)
R_UG48 ( 0 46 ) COMPLEX( 100.n, 0.)
R_UG49 ( 0 161 ) COMPLEX( 100.n, 0.)
R_UG50 ( 0 1 ) COMPLEX( 100.n, 0.)
**** Valor da resistência no modo fonte de tensão 0.214245 
* For infinite bar load: 
****I_UG01 ( 110 8 ) COMPLEX( 1.0K, 0.) 
****I_UG02 ( 109 7 ) COMPLEX( 1.0K, 0.) 
I_UG01 ( 8 110 ) COMPLEX( 10.0409K, 0.)
I_UG02 ( 7 109 ) COMPLEX( 10.0409K, 7.53066K)
I_UG03 ( 9 107 ) COMPLEX( 10.0409K, 7.53066K)
I_UG04 ( 6 106 ) COMPLEX( 10.0409K, 7.53066K)
I_UG05 ( 4 104 ) COMPLEX( 7.53066K, 0.)
I_UG06 ( 3 103 ) COMPLEX( 7.53066K, 0.)
I_UG07 ( 5 101 ) COMPLEX( 7.53066K, 0.)
I_UG08 ( 2 100 ) COMPLEX( 7.53066K, 0.)
I_UG09 ( 12 116 ) COMPLEX( 7.53066K, 0.)
I_UG10 ( 11 115 ) COMPLEX( 7.53066K, 0.)
I_UG11 ( 13 113 ) COMPLEX( 7.53066K, 0.)
I_UG12 ( 10 112 ) COMPLEX( 7.53066K, 0.)
I_UG13 ( 16 122 ) COMPLEX( 7.53066K, 0.)
I_UG14 ( 15 121 ) COMPLEX( 7.53066K, 0.)
I_UG15 ( 17 119 ) COMPLEX( 7.53066K, 0.)
I_UG16 ( 14 118 ) COMPLEX( 7.53066K, 0.)
I_UG17 ( 20 128 ) COMPLEX( 7.53066K, 0.)
I_UG18 ( 19 127 ) COMPLEX( 7.53066K, 0.)
I_UG19 ( 21 125 ) COMPLEX( 7.53066K, 0.)
I_UG20 ( 18 124 ) COMPLEX( 7.53066K, 0.)
I_UG21 ( 24 134 ) COMPLEX( 0.3623188, 0.)
I_UG22 ( 23 133 ) COMPLEX( 0.3623188, 0.)
I_UG23 ( 25 131 ) COMPLEX( 0.3623188, 0.)
I_UG24 ( 22 130 ) COMPLEX( 0.3623188, 0.)
I_UG25 ( 28 140 ) COMPLEX( 0.3623188, 0.)
I_UG26 ( 27 139 ) COMPLEX( 0.3623188, 0.)
I_UG27 ( 29 137 ) COMPLEX( 0.3623188, 0.)
I_UG28 ( 26 136 ) COMPLEX( 0.3623188, 0.)
I_UG29 ( 32 158 ) COMPLEX( 0.3623188, 0.)
I_UG30 ( 31 157 ) COMPLEX( 0.3623188, 0.)
I_UG31 ( 33 155 ) COMPLEX( 0.3623188, 0.)
I_UG32 ( 30 154 ) COMPLEX( 0.3623188, 0.)
I_UG33 ( 36 152 ) COMPLEX( 0.3623188, 0.)
I_UG34 ( 35 151 ) COMPLEX( 0.3623188, 0.)
I_UG35 ( 37 149 ) COMPLEX( 0.3623188, 0.)
I_UG36 ( 34 148 ) COMPLEX( 0.3623188, 0.)
I_UG37 ( 40 146 ) COMPLEX( 0.3623188, 0.)
I_UG38 ( 39 145 ) COMPLEX( 0.3623188, 0.)
I_UG39 ( 41 143 ) COMPLEX( 0.3623188, 0.)
I_UG40 ( 38 142 ) COMPLEX( 0.3623188, 0.)
I_UG41 ( 44 98 ) COMPLEX( 7.53066K, 0.)
I_UG42 ( 43 97 ) COMPLEX( 7.53066K, 0.)
I_UG43 ( 45 95 ) COMPLEX( 7.53066K, 0.)
I_UG44 ( 42 94 ) COMPLEX( 7.53066K, 0.)
I_UG45 ( 48 92 ) COMPLEX( 7.53066K, 0.)
I_UG46 ( 47 91 ) COMPLEX( 7.53066K, 0.)
I_UG47 ( 49 89 ) COMPLEX( 7.53066K, 0.)
I_UG48 ( 46 88 ) COMPLEX( 7.53066K, 0.)
I_UG49 ( 161 86 ) COMPLEX( 7.53066K, 0.)
I_UG50 ( 1 84 ) COMPLEX( 7.53066K, 0.)
**** 
* For radial impedance load: 
V_UG05 ( 4 104 ) COMPLEX( 11.8K, 0.) 
V_UG06 ( 3 103 ) COMPLEX( 13.8K, 0.) 
V_UG07 ( 5 101 ) COMPLEX( 13.8K, 0.) 
V_UG08 ( 2 100 ) COMPLEX( 13.8K, 0.) 
V_UG09 ( 12 116 ) COMPLEX( 13.8K, 0.) 
V_UG10 ( 11 115 ) COMPLEX( 13.8K, 0.) 
V_UG11 ( 13 113 ) COMPLEX( 13.8K, 0.) 
V_UG12 ( 10 112 ) COMPLEX( 13.8K, 0.) 
V_UG13 ( 16 122 ) COMPLEX( 13.8K, 0.) 
V_UG14 ( 15 121 ) COMPLEX( 13.8K, 0.) 
V_UG15 ( 17 119 ) COMPLEX( 13.8K, 0.) 
V_UG16 ( 14 118 ) COMPLEX( 13.8K, 0.) 
V_UG17 ( 20 128 ) COMPLEX( 13.8K, 0.) 
V_UG18 ( 19 127 ) COMPLEX( 13.8K, 0.) 
V_UG19 ( 21 125 ) COMPLEX( 13.8K, 0.) 
V_UG20 ( 18 124 ) COMPLEX( 13.8K, 0.) 
V_UG21 ( 24 134 ) COMPLEX( 13.8K, 0.) 
V_UG22 ( 23 133 ) COMPLEX( 13.8K, 0.) 
V_UG23 ( 25 131 ) COMPLEX( 13.8K, 0.) 
V_UG24 ( 22 130 ) COMPLEX( 13.8K, 0.) 
V_UG25 ( 28 140 ) COMPLEX( 13.8K, 0.) 
V_UG26 ( 27 139 ) COMPLEX( 13.8K, 0.) 
V_UG27 ( 29 137 ) COMPLEX( 13.8K, 0.) 
V_UG28 ( 26 136 ) COMPLEX( 13.8K, 0.) 
V_UG29 ( 32 158 ) COMPLEX( 13.8K, 0.) 
V_UG30 ( 31 157 ) COMPLEX( 13.8K, 0.) 
V_UG31 ( 33 155 ) COMPLEX( 13.8K, 0.) 
V_UG32 ( 30 154 ) COMPLEX( 13.8K, 0.) 
V_UG33 ( 36 152 ) COMPLEX( 13.8K, 0.) 
V_UG34 ( 35 151 ) COMPLEX( 13.8K, 0.) 
V_UG35 ( 37 149 ) COMPLEX( 13.8K, 0.) 
V_UG36 ( 34 148 ) COMPLEX( 13.8K, 0.) 
V_UG37 ( 40 146 ) COMPLEX( 13.8K, 0.) 
V_UG38 ( 39 145 ) COMPLEX( 13.8K, 0.) 
V_UG39 ( 41 143 ) COMPLEX( 13.8K, 0.) 
V_UG40 ( 38 142 ) COMPLEX( 13.8K, 0.) 
V_UG41 ( 44 98 ) COMPLEX( 13.8K, 0.) 
V_UG42 ( 43 97 ) COMPLEX( 13.8K, 0.) 
V_UG43 ( 45 95 ) COMPLEX( 13.8K, 0.) 
V_UG44 ( 42 94 ) COMPLEX( 13.8K, 0.) 
V_UG45 ( 48 92 ) COMPLEX( 13.8K, 0.) 
V_UG46 ( 47 91 ) COMPLEX( 13.8K, 0.) 
V_UG47 ( 49 89 ) COMPLEX( 13.8K, 0.) 
V_UG48 ( 46 88 ) COMPLEX( 13.8K, 0.) 
********* Inverted phase (180.0) V_UG49 ( 161 86 ) ( 161 86 ) COMPLEX( 13.8K, 0.) 
*****V_UG49 ( 86 161 ) COMPLEX( 13.8K, 0.) 
********* Inverted phase (180.0) V_UG50 ( 1 84 ) ( 1 84 ) COMPLEX( 13.8K, 0.) 
*****V_UG50 ( 84 1 ) COMPLEX( 13.8K, 0.) 
X_T01 ( 105 108 242 )  MONOPHASIC_TRANSFORMER_525K
X_T02 ( 99 102 244 )  MONOPHASIC_TRANSFORMER_525K
X_T03 ( 111 114 266 )  MONOPHASIC_TRANSFORMER_525K
X_T04 ( 117 120 265 )  MONOPHASIC_TRANSFORMER_525K
X_T05 ( 123 126 263 )  MONOPHASIC_TRANSFORMER_525K
X_T06 ( 129 132 260 )  MONOPHASIC_TRANSFORMER_525K
X_T07 ( 135 138 259 )  MONOPHASIC_TRANSFORMER_525K
X_T08 ( 153 156 257 )  MONOPHASIC_TRANSFORMER_525K
X_T09 ( 147 150 255 )  MONOPHASIC_TRANSFORMER_525K
X_T10 ( 141 144 253 )  MONOPHASIC_TRANSFORMER_525K
X_T11 ( 93 96 250 )  MONOPHASIC_TRANSFORMER_525K
X_T12 ( 87 90 249 )  MONOPHASIC_TRANSFORMER_525K
X_T13 ( 83 85 247 )  MONOPHASIC_TRANSFORMER_525K
***R_LT3_METER ( 52 268 ) COMPLEX( 200.n , 0.) 
***R_LT2_METER ( 54 270 ) COMPLEX( 200.n , 0.) 
R_LT3_METER ( 268 3600 ) COMPLEX( 200.n, 0.)
R_LT3_METER1 ( 52 3599 ) COMPLEX( 100.n, 0.)
R_LT2_METER ( 270 3598 ) COMPLEX( 200.n, 0.)
R_LT2_METER1 ( 54 3597 ) COMPLEX( 100.n, 0.)
R_LT1_METER ( 269 3595 ) COMPLEX( 200.n, 0.)
R_LT1_METER1 ( 53 3596 ) COMPLEX( 100.n, 0.)
* 
X_LT1 ( 3596 3595 )  LT_LT1_LT2
X_LT2 ( 3597 3598 )  LT_LT1_LT2
X_LT3 ( 3599 3600 )  LT_LT3
* 
* Infinite grid/bar; power or current depend on V_Grid: 
**** TEST R_Grid_SWITCH ( 50 273 ) COMPLEX( 100.n, 0.)
R_Grid_SWITCH ( 50 271 ) COMPLEX( 100.n, 0.)
V_Grid ( 271 0 ) COMPLEX( 676.107K,-3.85972K)
* Reactance Xss at the secondary: Xss = 0.43*(525/13.8)^2 = 622.34168241966 
**** TEST R_Grid ( 271 273 ) COMPLEX( 0.0144731, 622.342)
R_Grid ( 0 0 ) COMPLEX( 0.0144731, 622.342)
* 
* Radial. finite grid/bar: 
R_LOAD_BARRA_B ( 0 272 ) COMPLEX( 30.4697K,-217.775)
R_LOAD_BARRA_B_SWITCH ( 0 0 ) COMPLEX( 1.E+12, 0.)
* -------------------------------------------------------------------------------- 
* Netlist: Auxiliares CA Geral 
R_S891xxQCE11 ( 274 368 ) COMPLEX( 100.n, 0.)
R_S891xxQCE12 ( 275 375 ) COMPLEX( 100.n, 0.)
R_D52CARGAxxQCMAC2 ( 0 353 ) COMPLEX( 387.2, 0.)
R_D52CARGAxxQCMAC1 ( 0 525 ) COMPLEX( 387.2, 0.)
****R_D52CARGAxxTSVT2 ( 0 320 ) COMPLEX( 387.2, 0.)
R_D52CARGAxxCDTSB4 ( 0 276 ) COMPLEX( 387.2, 0.)
R_D52CARGAxxTSVT1 ( 0 342 ) COMPLEX( 387.2, 0.)
R_D52CARGAxxCDTSB3 ( 0 277 ) COMPLEX( 387.2, 0.)
****R_D52CARGAxxQCME2 ( 0 432 ) COMPLEX( 387.2, 0.)
R_D52QLxxQCM11 ( 0 0 ) COMPLEX( 1.E+12, 0.)
X_TSE3 ( 516 511 )  MONOPHASIC_TRANSFORMER_440
R_D52QLxxQCM8 ( 0 0 ) COMPLEX( 1.E+12, 0.)
X_TSB2 ( 456 529 )  MONOPHASIC_REGULATOR
X_TSE2 ( 522 526 )  MONOPHASIC_TRANSFORMER_440
R_D52QEExxQCM2 ( 0 0 ) COMPLEX( 1.E+12, 0.)
R_D52QE1xxQCM2 ( 531 455 ) COMPLEX( 100.n, 0.)
X_TSA3 ( 530 531 )  MONOPHASIC_TRANSFORMER_440
R_D52QLxxQCM2 ( 0 0 ) COMPLEX( 1.E+12, 0.)
R_D52QE2xxQCM2 ( 532 453 ) COMPLEX( 100.n, 0.)
X_TSA4 ( 528 532 )  MONOPHASIC_TRANSFORMER_440
R_D52QLxxQCM1 ( 0 0 ) COMPLEX( 1.E+12, 0.)
R_D52xxQCGE1 ( 0 0 ) COMPLEX( 1.E+12, 0.)
R_D52xxQCGE2 ( 0 0 ) COMPLEX( 1.E+12, 0.)
R_D52xxCDG26 ( 83 387 ) COMPLEX( 100.n, 0.)
R_D52xxCDG25 ( 85 386 ) COMPLEX( 100.n, 0.)
X_TSA26 ( 387 388 )  MONOPHASIC_TRANSFORMER_440
X_TSA25 ( 386 385 )  MONOPHASIC_TRANSFORMER_440
R_D52QE2xxQCM13 ( 388 389 ) COMPLEX( 100.n, 0.)
R_D52QE1xxQCM13 ( 385 390 ) COMPLEX( 100.n, 0.)
R_D52QEExxQCM13 ( 0 0 ) COMPLEX( 1.E+12, 0.)
R_D52QLxxQCM13 ( 0 0 ) COMPLEX( 1.E+12, 0.)
X_TSE13 ( 383 384 )  MONOPHASIC_TRANSFORMER_440
R_S891xxQCE13 ( 382 383 ) COMPLEX( 100.n, 0.)
R_S892xxQCE13 ( 374 382 ) COMPLEX( 100.n, 0.)
R_S893xxQCE13 ( 381 382 ) COMPLEX( 100.n, 0.)
R_D52206xxQCM13 ( 389 402 ) COMPLEX( 100.n, 0.)
R_D52204xxQCM13 ( 389 406 ) COMPLEX( 100.n, 0.)
R_D52205xxQCM13 ( 395 389 ) COMPLEX( 100.n, 0.)
R_D52203xxQCM13 ( 389 403 ) COMPLEX( 100.n, 0.)
R_D52202xxQCM13 ( 389 404 ) COMPLEX( 100.n, 0.)
R_D52201xxQCM13 ( 405 389 ) COMPLEX( 100.n, 0.)
R_D52106xxQCM13 ( 390 401 ) COMPLEX( 100.n, 0.)
R_D52105xxQCM13 ( 390 399 ) COMPLEX( 100.n, 0.)
R_D52104xxQCM13 ( 390 397 ) COMPLEX( 100.n, 0.)
R_D52103xxQCM13 ( 0 0 ) COMPLEX( 1.E+12, 0.)
R_D52102xxQCM13 ( 390 400 ) COMPLEX( 100.n, 0.)
R_D52101xxQCM13 ( 396 390 ) COMPLEX( 100.n, 0.)
R_D52QLxxQCM12 ( 0 0 ) COMPLEX( 1.E+12, 0.)
X_TSE7 ( 335 327 )  MONOPHASIC_TRANSFORMER_440
X_TSB4 ( 322 323 )  MONOPHASIC_REGULATOR
R_D52xxCDTSB4 ( 0 0 ) COMPLEX( 1.E+12, 0.)
R_D52ExxCDG14E ( 135 324 ) COMPLEX( 100.n, 0.)
R_D522xxCDG14S ( 323 324 ) COMPLEX( 100.n, 0.)
R_D521xxCDG14S ( 324 325 ) COMPLEX( 100.n, 0.)
R_D52xxCDG13 ( 138 326 ) COMPLEX( 100.n, 0.)
R_D52QLxxQCM7 ( 0 0 ) COMPLEX( 1.E+12, 0.)
X_TSA14 ( 325 328 )  MONOPHASIC_TRANSFORMER_440
X_TSA13 ( 326 329 )  MONOPHASIC_TRANSFORMER_440
X_TSVT2 ( 320 321 )  MONOPHASIC_TRANSFORMER_440
R_D52QE2xxQCM7 ( 328 330 ) COMPLEX( 100.n, 0.)
R_D52QE1xxQCM7 ( 329 331 ) COMPLEX( 100.n, 0.)
R_D52QEExxQCM7 ( 0 0 ) COMPLEX( 1.E+12, 0.)
R_D52206xxQCM7 ( 0 0 ) COMPLEX( 1.E+12, 0.)
R_D52204xxQCM7 ( 0 0 ) COMPLEX( 1.E+12, 0.)
R_D52205xxQCM7 ( 330 554 ) COMPLEX( 100.n, 0.)
R_D52203xxQCM7 ( 552 330 ) COMPLEX( 100.n, 0.)
R_D52202xxQCM7 ( 330 553 ) COMPLEX( 100.n, 0.)
R_D52201xxQCM7 ( 330 551 ) COMPLEX( 100.n, 0.)
R_D52106xxQCM7 ( 331 550 ) COMPLEX( 100.n, 0.)
R_D52105xxQCM7 ( 331 548 ) COMPLEX( 100.n, 0.)
R_D52104xxQCM7 ( 331 546 ) COMPLEX( 100.n, 0.)
R_D52103xxQCM7 ( 547 331 ) COMPLEX( 100.n, 0.)
R_D52102xxQCM7 ( 331 549 ) COMPLEX( 100.n, 0.)
R_D52101xxQCM7 ( 0 0 ) COMPLEX( 1.E+12, 0.)
R_D52207xxQCM6 ( 0 0 ) COMPLEX( 1.E+12, 0.)
X_TSVT1 ( 342 341 )  MONOPHASIC_TRANSFORMER_440
X_TSE6 ( 337 338 )  MONOPHASIC_TRANSFORMER_440
R_D52xxCDTSB3 ( 0 0 ) COMPLEX( 1.E+12, 0.)
X_TSB3 ( 348 349 )  MONOPHASIC_REGULATOR
R_D522xxCDG12S ( 347 348 ) COMPLEX( 100.n, 0.)
R_D521xxCDG12S ( 346 347 ) COMPLEX( 100.n, 0.)
R_D52ExxCDG12E ( 129 347 ) COMPLEX( 100.n, 0.)
X_TSA12 ( 346 345 )  MONOPHASIC_TRANSFORMER_440
R_D52QE2xxQCM6 ( 345 343 ) COMPLEX( 100.n, 0.)
R_D52QE1xxQCM6 ( 340 344 ) COMPLEX( 100.n, 0.)
R_D52QEExxQCM6 ( 0 0 ) COMPLEX( 1.E+12, 0.)
R_D52QLxxQCM6 ( 0 0 ) COMPLEX( 1.E+12, 0.)
X_TSA11 ( 339 340 )  MONOPHASIC_TRANSFORMER_440
R_D52xxCDG11 ( 132 339 ) COMPLEX( 100.n, 0.)
R_D52206xxQCM6 ( 343 555 ) COMPLEX( 100.n, 0.)
R_D52204xxQCM6 ( 0 0 ) COMPLEX( 1.E+12, 0.)
R_D52205xxQCM6 ( 343 566 ) COMPLEX( 100.n, 0.)