TITLE UH JIRAU POWER FLOW (March/2018) 
* -------------------------------------------------------------------------------- 
* Notes: 
* TO-DO1: capacitors in shunt mode to the circuit breaker. 
* TO-DO2: ... 
* TO-DO3: ... 
* -------------------------------------------------------------------------------- 
* Models 
* A magnetic coupling 13.8kV to 525kV: 
.subckt COUPLING_525K  ( 1 3 )
*1,2: primary nodes 
*2,3: secondary nodes 
*13.8kV to 525kV 
Lsecondary ( 0 3 )  2.894612K
Lprimary ( 0 1 )  2.
K  Lsecondary  Lprimary  0.9999999
.ends COUPLING_525K
* 
*Version 3: 2 independent monophasic transformers in parallel. 
.subckt MONOPHASIC_TRANSFORMER_525K  ( 1 2 3 )
*1,0: primary A 
*2,0: primary B 
*3,0: secondary 
XTEa ( 1 3 )  COUPLING_525K
XTEb ( 2 3 )  COUPLING_525K
.ends MONOPHASIC_TRANSFORMER_525K
* 
* A magnetic coupling 13.8kV to 440V: 
.subckt MONOPHASIC_TRANSFORMER_440  ( 1 2 )
*1,0: primary nodes 
*2,0: secondary nodes 
*13.8kV to 440V 
Lsecondary ( 0 2 )  2.033186
Lprimary ( 0 1 )  2.K
K  Lsecondary  Lprimary  0.9999999
.ends MONOPHASIC_TRANSFORMER_440
* 
* A magnetic coupling where a=1: 
.subckt MONOPHASIC_REGULATOR  ( 1 2 )
*1,0: primary nodes 
*2,0: secondary nodes 
*a=1 
Lsecondary ( 0 2 )  2.K
Lprimary ( 0 1 )  2.K
K  Lsecondary  Lprimary  0.9999999
.ends MONOPHASIC_REGULATOR
* 
* LT1 and LT2: 
.subckt LT_LT1_LT2  ( 1 2 )
R_LT1_PI ( 1 2 ) COMPLEX( 1.624, 0.)
***R_LT1_PI ( 1 2 ) COMPLEX( 1.624, 28.765) 
***R_LT1_PI1 ( 1 0 ) COMPLEX( 0.,-4.05351K) 
***R_LT1_PI2 ( 2 0 ) COMPLEX( 0.,-4.05351K) 
.ends LT_LT1_LT2
* 
* 
* -------------------------------------------------------------------------------- 
* Netlist: SE MD, SE ME and SE Coletora 
R_D52A1_4 ( 170 171 )  100.n
R_D52A1_5 ( 175 176 )  100.n
R_D52A1_6 ( 166 167 )  100.n
R_D52BT_1 ( 0 0 )  1.E+12
R_D52BT_2 ( 0 0 )  1.E+12
R_D52C1_4 ( 168 163 )  100.n
R_D52C1_5 ( 173 172 )  100.n
R_D52C1_6 ( 164 162 )  100.n
R_D52G_1 ( 110 229 )  100.n
R_D52G_10 ( 115 235 )  100.n
R_D52G_11 ( 113 236 )  100.n
R_D52G_12 ( 112 237 )  100.n
R_D52G_13 ( 122 238 )  100.n
R_D52G_14 ( 121 239 )  100.n
R_D52G_15 ( 119 240 )  100.n
R_D52G_16 ( 118 241 )  100.n
R_D52G_17 ( 128 223 )  100.n
R_D52G_18 ( 127 224 )  100.n
R_D52G_19 ( 125 225 )  100.n
R_D52G_2 ( 109 228 )  100.n
R_D52G_20 ( 124 222 )  100.n
R_D52G_21 ( 200 134 )  100.n
R_D52G_22 ( 133 201 )  100.n
R_D52G_23 ( 202 131 )  100.n
R_D52G_24 ( 130 203 )  100.n
R_D52G_25 ( 140 196 )  100.n
R_D52G_26 ( 139 197 )  100.n
R_D52G_27 ( 137 198 )  100.n
R_D52G_28 ( 136 199 )  100.n
R_D52G_29 ( 221 158 )  100.n
R_D52G_3 ( 107 227 )  100.n
R_D52G_30 ( 220 157 )  100.n
R_D52G_31 ( 155 219 )  100.n
R_D52G_32 ( 218 154 )  100.n
R_D52G_33 ( 217 152 )  100.n
R_D52G_34 ( 216 151 )  100.n
R_D52G_35 ( 215 149 )  100.n
R_D52G_36 ( 214 148 )  100.n
R_D52G_37 ( 146 213 )  100.n
R_D52G_38 ( 212 145 )  100.n
R_D52G_39 ( 143 211 )  100.n
R_D52G_4 ( 106 226 )  100.n
R_D52G_40 ( 210 142 )  100.n
R_D52G_41 ( 192 98 )  100.n
R_D52G_42 ( 97 193 )  100.n
R_D52G_43 ( 194 95 )  100.n
R_D52G_44 ( 94 195 )  100.n
R_D52G_45 ( 92 209 )  100.n
R_D52G_46 ( 208 91 )  100.n
R_D52G_47 ( 89 207 )  100.n
R_D52G_48 ( 206 88 )  100.n
R_D52G_49 ( 86 205 )  100.n
R_D52G_5 ( 104 233 )  100.n
R_D52G_50 ( 84 204 )  100.n
R_D52G_6 ( 103 232 )  100.n
R_D52G_7 ( 101 231 )  100.n
R_D52G_8 ( 100 230 )  100.n
R_D52G_9 ( 116 234 )  100.n
R_D52L_1 ( 0 0 )  1.E+12
R_D52L_2 ( 0 0 )  1.E+12
R_D52L_3 ( 57 184 )  100.n
R_D52L_4 ( 0 0 )  1.E+12
R_D52L_5 ( 60 188 )  100.n
R_D52RE0_1 ( 0 0 )  1.E+12
R_D52T_1 ( 243 70 )  100.n
R_D52T_10 ( 78 252 )  100.n
R_D52T_11 ( 0 0 )  1.E+12
R_D52T_12 ( 248 159 )  100.n
R_D52T_13 ( 160 246 )  100.n
R_D52T_2 ( 245 71 )  100.n
R_D52T_3 ( 267 68 )  100.n
R_D52T_4 ( 264 67 )  100.n
R_D52T_5 ( 262 74 )  100.n
R_D52T_6 ( 75 261 )  100.n
R_D52T_7 ( 258 76 )  100.n
R_D52T_8 ( 256 80 )  100.n
R_D52T_9 ( 79 254 )  100.n
R_S57B1_1 ( 0 0 )  1.E+12
R_S57B1_2 ( 0 0 )  1.E+12
R_S57B2_1 ( 0 0 )  1.E+12
R_S57B2_2 ( 0 0 )  1.E+12
R_S57B3_1 ( 0 0 )  1.E+12
R_S57B3_2 ( 0 0 )  1.E+12
R_S57B4_1 ( 0 0 )  1.E+12
R_S57B4_2 ( 0 0 )  1.E+12
R_S57BT1_1 ( 0 0 )  1.E+12
R_S57BT1_2 ( 0 0 )  1.E+12
R_S57BT2_1 ( 0 0 )  1.E+12
R_S57BT2_2 ( 0 0 )  1.E+12
R_S57L1_1 ( 0 0 )  1.E+12
R_S57L1_2 ( 0 0 )  1.E+12
R_S57L1_3 ( 0 0 )  1.E+12
R_S57L1_4 ( 0 0 )  1.E+12
R_S57L1_5 ( 0 0 )  1.E+12
R_S57L2_1 ( 0 0 )  1.E+12
R_S57L2_2 ( 0 0 )  1.E+12
R_S57L2_3 ( 0 0 )  1.E+12
R_S57L2_4 ( 0 0 )  1.E+12
R_S57L2_5 ( 0 0 )  1.E+12
R_S57L3_1 ( 0 0 )  1.E+12
R_S57L3_2 ( 0 0 )  1.E+12
R_S57L3_3 ( 0 0 )  1.E+12
R_S57L3_4 ( 0 0 )  1.E+12
R_S57L3_5 ( 0 0 )  1.E+12
R_S57LA1_4 ( 0 0 )  1.E+12
R_S57LA1_5 ( 0 0 )  1.E+12
R_S57LA1_6 ( 0 0 )  1.E+12
R_S57T1_1 ( 0 0 )  1.E+12
R_S57T1_10 ( 0 0 )  1.E+12
R_S57T1_11 ( 0 0 )  1.E+12
R_S57T1_12 ( 0 0 )  1.E+12
R_S57T1_13 ( 0 0 )  1.E+12
R_S57T1_2 ( 0 0 )  1.E+12
R_S57T1_3 ( 0 0 )  1.E+12
R_S57T1_4 ( 0 0 )  1.E+12
R_S57T1_5 ( 0 0 )  1.E+12
R_S57T1_6 ( 0 0 )  1.E+12
R_S57T1_7 ( 0 0 )  1.E+12
R_S57T1_8 ( 0 0 )  1.E+12
R_S57T1_9 ( 0 0 )  1.E+12
R_S57T2_1 ( 0 0 )  1.E+12
R_S57T2_10 ( 0 0 )  1.E+12
R_S57T2_11 ( 0 0 )  1.E+12
R_S57T2_12 ( 0 0 )  1.E+12
R_S57T2_13 ( 0 0 )  1.E+12
R_S57T2_2 ( 0 0 )  1.E+12
R_S57T2_3 ( 0 0 )  1.E+12
R_S57T2_4 ( 0 0 )  1.E+12
R_S57T2_5 ( 0 0 )  1.E+12
R_S57T2_6 ( 0 0 )  1.E+12
R_S57T2_7 ( 0 0 )  1.E+12
R_S57T2_8 ( 0 0 )  1.E+12
R_S57T2_9 ( 0 0 )  1.E+12
R_S57T3_1 ( 0 0 )  1.E+12
R_S57T3_10 ( 0 0 )  1.E+12
R_S57T3_11 ( 0 0 )  1.E+12
R_S57T3_12 ( 0 0 )  1.E+12
R_S57T3_13 ( 0 0 )  1.E+12
R_S57T3_2 ( 0 0 )  1.E+12
R_S57T3_3 ( 0 0 )  1.E+12
R_S57T3_4 ( 0 0 )  1.E+12
R_S57T3_5 ( 0 0 )  1.E+12
R_S57T3_6 ( 0 0 )  1.E+12
R_S57T3_7 ( 0 0 )  1.E+12
R_S57T3_8 ( 0 0 )  1.E+12
R_S57T3_9 ( 0 0 )  1.E+12
R_S57TA_1 ( 0 0 )  1.E+12
R_S57TA_10 ( 0 0 )  1.E+12
R_S57TA_11 ( 0 0 )  1.E+12
R_S57TA_12 ( 0 0 )  1.E+12
R_S57TA_13 ( 0 0 )  1.E+12
R_S57TA_14 ( 0 0 )  1.E+12
R_S57TA_15 ( 0 0 )  1.E+12
R_S57TA_16 ( 0 0 )  1.E+12
R_S57TA_17 ( 0 0 )  1.E+12
R_S57TA_18 ( 0 0 )  1.E+12
R_S57TA_19 ( 0 0 )  1.E+12
R_S57TA_2 ( 0 0 )  1.E+12
R_S57TA_20 ( 0 0 )  1.E+12
R_S57TA_21 ( 0 0 )  1.E+12
R_S57TA_22 ( 0 0 )  1.E+12
R_S57TA_23 ( 0 0 )  1.E+12
R_S57TA_24 ( 0 0 )  1.E+12
R_S57TA_25 ( 0 0 )  1.E+12
R_S57TA_26 ( 0 0 )  1.E+12
R_S57TA_27 ( 0 0 )  1.E+12
R_S57TA_28 ( 0 0 )  1.E+12
R_S57TA_29 ( 0 0 )  1.E+12
R_S57TA_3 ( 0 0 )  1.E+12
R_S57TA_30 ( 0 0 )  1.E+12
R_S57TA_31 ( 0 0 )  1.E+12
R_S57TA_32 ( 0 0 )  1.E+12
R_S57TA_33 ( 0 0 )  1.E+12
R_S57TA_34 ( 0 0 )  1.E+12
R_S57TA_35 ( 0 0 )  1.E+12
R_S57TA_36 ( 0 0 )  1.E+12
R_S57TA_37 ( 0 0 )  1.E+12
R_S57TA_38 ( 0 0 )  1.E+12
R_S57TA_39 ( 0 0 )  1.E+12
R_S57TA_4 ( 0 0 )  1.E+12
R_S57TA_40 ( 0 0 )  1.E+12
R_S57TA_41 ( 0 0 )  1.E+12
R_S57TA_42 ( 0 0 )  1.E+12
R_S57TA_43 ( 0 0 )  1.E+12
R_S57TA_44 ( 0 0 )  1.E+12
R_S57TA_45 ( 0 0 )  1.E+12
R_S57TA_46 ( 0 0 )  1.E+12
R_S57TA_47 ( 0 0 )  1.E+12
R_S57TA_48 ( 0 0 )  1.E+12
R_S57TA_49 ( 0 0 )  1.E+12
R_S57TA_5 ( 0 0 )  1.E+12
R_S57TA_50 ( 0 0 )  1.E+12
R_S57TA_6 ( 0 0 )  1.E+12
R_S57TA_7 ( 0 0 )  1.E+12
R_S57TA_8 ( 0 0 )  1.E+12
R_S57TA_9 ( 0 0 )  1.E+12
R_S57TB_1 ( 0 0 )  1.E+12
R_S57TB_10 ( 0 0 )  1.E+12
R_S57TB_11 ( 0 0 )  1.E+12
R_S57TB_12 ( 0 0 )  1.E+12
R_S57TB_13 ( 0 0 )  1.E+12
R_S57TB_14 ( 0 0 )  1.E+12
R_S57TB_15 ( 0 0 )  1.E+12
R_S57TB_16 ( 0 0 )  1.E+12
R_S57TB_17 ( 0 0 )  1.E+12
R_S57TB_18 ( 0 0 )  1.E+12
R_S57TB_19 ( 0 0 )  1.E+12
R_S57TB_2 ( 0 0 )  1.E+12
R_S57TB_20 ( 0 0 )  1.E+12
R_S57TB_21 ( 0 0 )  1.E+12
R_S57TB_22 ( 0 0 )  1.E+12
R_S57TB_23 ( 0 0 )  1.E+12
R_S57TB_24 ( 0 0 )  1.E+12
R_S57TB_25 ( 0 0 )  1.E+12
R_S57TB_26 ( 0 0 )  1.E+12
R_S57TB_27 ( 0 0 )  1.E+12
R_S57TB_28 ( 0 0 )  1.E+12
R_S57TB_29 ( 0 0 )  1.E+12
R_S57TB_3 ( 0 0 )  1.E+12
R_S57TB_30 ( 0 0 )  1.E+12
R_S57TB_31 ( 0 0 )  1.E+12
R_S57TB_32 ( 0 0 )  1.E+12
R_S57TB_33 ( 0 0 )  1.E+12
R_S57TB_34 ( 0 0 )  1.E+12
R_S57TB_35 ( 0 0 )  1.E+12
R_S57TB_36 ( 0 0 )  1.E+12
R_S57TB_37 ( 0 0 )  1.E+12
R_S57TB_38 ( 0 0 )  1.E+12
R_S57TB_39 ( 0 0 )  1.E+12
R_S57TB_4 ( 0 0 )  1.E+12
R_S57TB_40 ( 0 0 )  1.E+12
R_S57TB_41 ( 0 0 )  1.E+12
R_S57TB_42 ( 0 0 )  1.E+12
R_S57TB_43 ( 0 0 )  1.E+12
R_S57TB_44 ( 0 0 )  1.E+12
R_S57TB_45 ( 0 0 )  1.E+12
R_S57TB_46 ( 0 0 )  1.E+12
R_S57TB_47 ( 0 0 )  1.E+12
R_S57TB_48 ( 0 0 )  1.E+12
R_S57TB_49 ( 0 0 )  1.E+12
R_S57TB_5 ( 0 0 )  1.E+12
R_S57TB_50 ( 0 0 )  1.E+12
R_S57TB_6 ( 0 0 )  1.E+12
R_S57TB_7 ( 0 0 )  1.E+12
R_S57TB_8 ( 0 0 )  1.E+12
R_S57TB_9 ( 0 0 )  1.E+12
R_S89A1_4 ( 171 51 )  100.n
R_S89A1_5 ( 0 0 )  1.E+12
R_S89A1_6 ( 0 0 )  1.E+12
R_S89AC1_4 ( 169 170 )  100.n
R_S89AC1_5 ( 174 175 )  100.n
R_S89AC1_6 ( 165 166 )  100.n
R_S89B1_1 ( 0 0 )  1.E+12
R_S89B1_2 ( 0 0 )  1.E+12
R_S89B2_1 ( 180 191 )  100.n
R_S89B2_2 ( 66 190 )  100.n
R_S89B3_1 ( 0 0 )  1.E+12
R_S89B3_2 ( 0 0 )  1.E+12
R_S89B4_1 ( 0 0 )  1.E+12
R_S89B4_2 ( 0 0 )  1.E+12
R_S89B5_1 ( 56 177 )  100.n
R_S89B5_2 ( 81 178 )  100.n
R_S89B6_1 ( 61 191 )  100.n
R_S89B6_2 ( 73 66 )  100.n
R_S89BTA_1 ( 179 180 )  100.n
R_S89BTA_2 ( 0 0 )  1.E+12
R_S89BTB_1 ( 65 190 )  100.n
R_S89BTB_2 ( 0 0 )  1.E+12
R_S89CA1_4 ( 168 169 )  100.n
R_S89CA1_5 ( 173 174 )  100.n
R_S89CA1_6 ( 164 165 )  100.n
R_S89CB1_4 ( 163 50 )  100.n
R_S89CB1_5 ( 50 172 )  100.n
R_S89CB1_6 ( 162 50 )  100.n
R_S89G_1 ( 229 108 )  100.n
R_S89G_10 ( 235 114 )  100.n
R_S89G_11 ( 236 111 )  100.n
R_S89G_12 ( 237 111 )  100.n
R_S89G_13 ( 238 120 )  100.n
R_S89G_14 ( 239 120 )  100.n
R_S89G_15 ( 240 117 )  100.n
R_S89G_16 ( 241 117 )  100.n
R_S89G_17 ( 223 126 )  100.n
R_S89G_18 ( 224 126 )  100.n
R_S89G_19 ( 225 123 )  100.n
R_S89G_2 ( 228 108 )  100.n
R_S89G_20 ( 222 123 )  100.n
R_S89G_21 ( 132 200 )  100.n
R_S89G_22 ( 201 132 )  100.n
R_S89G_23 ( 129 202 )  100.n
R_S89G_24 ( 129 203 )  100.n
R_S89G_25 ( 196 138 )  100.n
R_S89G_26 ( 197 138 )  100.n
R_S89G_27 ( 198 135 )  100.n
R_S89G_28 ( 199 135 )  100.n
R_S89G_29 ( 156 221 )  100.n
R_S89G_3 ( 227 105 )  100.n
R_S89G_30 ( 156 220 )  100.n
R_S89G_31 ( 219 153 )  100.n
R_S89G_32 ( 153 218 )  100.n
R_S89G_33 ( 150 217 )  100.n
R_S89G_34 ( 150 216 )  100.n
R_S89G_35 ( 147 215 )  100.n
R_S89G_36 ( 147 214 )  100.n
R_S89G_37 ( 213 144 )  100.n
R_S89G_38 ( 144 212 )  100.n
R_S89G_39 ( 211 141 )  100.n
R_S89G_4 ( 226 105 )  100.n
R_S89G_40 ( 141 210 )  100.n
R_S89G_41 ( 96 192 )  100.n
R_S89G_42 ( 193 96 )  100.n
R_S89G_43 ( 93 194 )  100.n
R_S89G_44 ( 93 195 )  100.n
R_S89G_45 ( 209 90 )  100.n
R_S89G_46 ( 90 208 )  100.n
R_S89G_47 ( 207 87 )  100.n
R_S89G_48 ( 87 206 )  100.n
R_S89G_49 ( 205 85 )  100.n
R_S89G_5 ( 233 102 )  100.n
R_S89G_50 ( 83 204 )  100.n
R_S89G_6 ( 232 102 )  100.n
R_S89G_7 ( 231 99 )  100.n
R_S89G_8 ( 230 99 )  100.n
R_S89G_9 ( 234 114 )  100.n
R_S89LA_1 ( 72 63 )  100.n
R_S89LA_2 ( 64 63 )  100.n
R_S89LA_3 ( 56 57 )  100.n
R_S89LA_4 ( 62 61 )  100.n
R_S89LA_5 ( 60 58 )  100.n
R_S89LA1_4 ( 269 169 )  100.n
R_S89LA1_5 ( 270 174 )  100.n
R_S89LA1_6 ( 268 165 )  100.n
R_S89LB_1 ( 72 69 )  100.n
R_S89LB_2 ( 0 0 )  1.E+12
R_S89LB_3 ( 178 57 )  100.n
R_S89LB_4 ( 62 73 )  100.n
R_S89LB_5 ( 60 77 )  100.n
R_S89LC_1 ( 53 186 )  100.n
R_S89LC_2 ( 0 0 )  1.E+12
R_S89LC_3 ( 52 184 )  100.n
R_S89LC_4 ( 187 189 )  100.n
R_S89LC_5 ( 3594 188 )  100.n
R_S89LE_1 ( 0 0 )  1.E+12
R_S89LE_2 ( 0 0 )  1.E+12
R_S89LE_3 ( 56 52 )  100.n
R_S89LE_4 ( 0 0 )  1.E+12
R_S89LE_5 ( 3594 58 )  100.n
R_S89RE1_4 ( 269 55 )  100.n
R_S89RE1_5 ( 270 55 )  100.n
R_S89RE1_6 ( 0 0 )  1.E+12
R_S89TA_1 ( 0 0 )  1.E+12
R_S89TA_10 ( 0 0 )  1.E+12
R_S89TA_11 ( 177 82 )  100.n
R_S89TA_12 ( 0 0 )  1.E+12
R_S89TA_13 ( 177 160 )  100.n
R_S89TA_2 ( 71 63 )  100.n
R_S89TA_3 ( 68 191 )  100.n
R_S89TA_4 ( 67 191 )  100.n
R_S89TA_5 ( 74 61 )  100.n
R_S89TA_6 ( 0 0 )  1.E+12
R_S89TA_7 ( 0 0 )  1.E+12
R_S89TA_8 ( 58 80 )  100.n
R_S89TA_9 ( 0 0 )  1.E+12
R_S89TB_1 ( 70 69 )  100.n
R_S89TB_10 ( 77 78 )  100.n
R_S89TB_11 ( 81 82 )  100.n
R_S89TB_12 ( 0 0 )  1.E+12
R_S89TB_13 ( 0 0 )  1.E+12
R_S89TB_2 ( 0 0 )  1.E+12
R_S89TB_3 ( 68 66 )  100.n
R_S89TB_4 ( 67 66 )  100.n
R_S89TB_5 ( 74 73 )  100.n
R_S89TB_6 ( 75 73 )  100.n
R_S89TB_7 ( 76 73 )  100.n
R_S89TB_8 ( 0 0 )  1.E+12
R_S89TB_9 ( 77 79 )  100.n
R_S89TC_1 ( 243 242 )  100.n
R_S89TC_10 ( 252 253 )  100.n
R_S89TC_11 ( 251 250 )  100.n
R_S89TC_12 ( 248 249 )  100.n
R_S89TC_13 ( 246 247 )  100.n
R_S89TC_2 ( 245 244 )  100.n
R_S89TC_3 ( 267 266 )  100.n
R_S89TC_4 ( 264 265 )  100.n
R_S89TC_5 ( 262 263 )  100.n
R_S89TC_6 ( 261 260 )  100.n
R_S89TC_7 ( 258 259 )  100.n
R_S89TC_8 ( 256 257 )  100.n
R_S89TC_9 ( 254 255 )  100.n
R_LT45_METER ( 3594 187 )  100.n
****** 
* Internal current source resistance: 
R_UG01 ( 0 8 )  100.n
R_UG02 ( 0 7 )  100.n
R_UG03 ( 0 9 )  100.n
R_UG04 ( 0 6 )  100.n
****** 
* Internal voltage source resistance: 
R_UG05 ( 0 4 )  100.n
R_UG06 ( 0 3 )  100.n
R_UG07 ( 0 5 )  100.n
R_UG08 ( 0 2 )  100.n
R_UG09 ( 0 12 )  100.n
R_UG10 ( 0 11 )  100.n
R_UG11 ( 0 13 )  100.n
R_UG12 ( 0 10 )  100.n
R_UG13 ( 0 16 )  100.n
R_UG14 ( 0 15 )  100.n
R_UG15 ( 0 17 )  100.n
R_UG16 ( 0 14 )  100.n
R_UG17 ( 0 20 )  100.n
R_UG18 ( 0 19 )  100.n
R_UG19 ( 0 21 )  100.n
R_UG20 ( 0 18 )  100.n
R_UG21 ( 0 24 )  100.n
R_UG22 ( 0 23 )  100.n
R_UG23 ( 0 25 )  100.n
R_UG24 ( 0 22 )  100.n
R_UG25 ( 0 28 )  100.n
R_UG26 ( 0 27 )  100.n
R_UG27 ( 0 29 )  100.n
R_UG28 ( 0 26 )  100.n
R_UG29 ( 0 32 )  100.n
R_UG30 ( 0 31 )  100.n
R_UG31 ( 0 33 )  100.n
R_UG32 ( 0 30 )  100.n
R_UG33 ( 0 36 )  100.n
R_UG34 ( 0 35 )  100.n
R_UG35 ( 0 37 )  100.n
R_UG36 ( 0 34 )  100.n
R_UG37 ( 0 40 )  100.n
R_UG38 ( 0 39 )  100.n
R_UG39 ( 0 41 )  100.n
R_UG40 ( 0 38 )  100.n
R_UG41 ( 0 44 )  100.n
R_UG42 ( 0 43 )  100.n
R_UG43 ( 0 45 )  100.n
R_UG44 ( 0 42 )  100.n
R_UG45 ( 0 48 )  100.n
R_UG46 ( 0 47 )  100.n
R_UG47 ( 0 49 )  100.n
R_UG48 ( 0 46 )  100.n
R_UG49 ( 0 161 )  100.n
R_UG50 ( 0 1 )  100.n
**** Valor da resistência no modo fonte de tensão 0.214245 
* For infinite bar load: 
****I_UG01 ( 110 8 ) COMPLEX( 1.0K, 0.) 
****I_UG02 ( 109 7 ) COMPLEX( 1.0K, 0.) 
I_UG01 ( 8 110 ) COMPLEX( 7.53066K, 7.53066K)
I_UG02 ( 7 109 ) COMPLEX( 7.53066K, 7.53066K)
I_UG03 ( 9 107 ) COMPLEX( 7.53066K, 7.53066K)
I_UG04 ( 6 106 ) COMPLEX( 7.53066K, 7.53066K)
I_UG05 ( 4 104 ) COMPLEX( 7.53066K, 0.)
I_UG06 ( 3 103 ) COMPLEX( 7.53066K, 0.)
I_UG07 ( 5 101 ) COMPLEX( 7.53066K, 0.)
I_UG08 ( 2 100 ) COMPLEX( 7.53066K, 0.)
I_UG09 ( 12 116 ) COMPLEX( 0.3623188, 0.)
I_UG10 ( 11 115 ) COMPLEX( 0.3623188, 0.)
I_UG11 ( 13 113 ) COMPLEX( 0.3623188, 0.)
I_UG12 ( 10 112 ) COMPLEX( 0.3623188, 0.)
I_UG13 ( 16 122 ) COMPLEX( 0.3623188, 0.)
I_UG14 ( 15 121 ) COMPLEX( 0.3623188, 0.)
I_UG15 ( 17 119 ) COMPLEX( 0.3623188, 0.)
I_UG16 ( 14 118 ) COMPLEX( 0.3623188, 0.)
I_UG17 ( 20 128 ) COMPLEX( 0.3623188, 0.)
I_UG18 ( 19 127 ) COMPLEX( 0.3623188, 0.)
I_UG19 ( 21 125 ) COMPLEX( 0.3623188, 0.)
I_UG20 ( 18 124 ) COMPLEX( 0.3623188, 0.)
I_UG21 ( 24 134 ) COMPLEX( 0.3623188, 0.)
I_UG22 ( 23 133 ) COMPLEX( 0.3623188, 0.)
I_UG23 ( 25 131 ) COMPLEX( 0.3623188, 0.)
I_UG24 ( 22 130 ) COMPLEX( 0.3623188, 0.)
I_UG25 ( 28 140 ) COMPLEX( 0.3623188, 0.)
I_UG26 ( 27 139 ) COMPLEX( 0.3623188, 0.)
I_UG27 ( 29 137 ) COMPLEX( 0.3623188, 0.)
I_UG28 ( 26 136 ) COMPLEX( 0.3623188, 0.)
I_UG29 ( 32 158 ) COMPLEX( 0.3623188, 0.)
I_UG30 ( 31 157 ) COMPLEX( 0.3623188, 0.)
I_UG31 ( 33 155 ) COMPLEX( 0.3623188, 0.)
I_UG32 ( 30 154 ) COMPLEX( 0.3623188, 0.)
I_UG33 ( 36 152 ) COMPLEX( 0.3623188, 0.)
I_UG34 ( 35 151 ) COMPLEX( 0.3623188, 0.)
I_UG35 ( 37 149 ) COMPLEX( 0.3623188, 0.)
I_UG36 ( 34 148 ) COMPLEX( 0.3623188, 0.)
I_UG37 ( 40 146 ) COMPLEX( 0.3623188, 0.)
I_UG38 ( 39 145 ) COMPLEX( 0.3623188, 0.)
I_UG39 ( 41 143 ) COMPLEX( 0.3623188, 0.)
I_UG40 ( 38 142 ) COMPLEX( 0.3623188, 0.)
I_UG41 ( 44 98 ) COMPLEX( 0.3623188, 0.)
I_UG42 ( 43 97 ) COMPLEX( 0.3623188, 0.)
I_UG43 ( 45 95 ) COMPLEX( 0.3623188, 0.)
I_UG44 ( 42 94 ) COMPLEX( 0.3623188, 0.)
I_UG45 ( 48 92 ) COMPLEX( 1.25511, 0.)
I_UG46 ( 47 91 ) COMPLEX( 1.25511, 0.)
I_UG47 ( 49 89 ) COMPLEX( 1.25511, 0.)
I_UG48 ( 46 88 ) COMPLEX( 10.0409K, 0.)
I_UG49 ( 161 86 ) COMPLEX( 7.53066K, 0.)
I_UG50 ( 1 84 ) COMPLEX( 7.53066K, 0.)
**** 
* For radial impedance load: 
*****V_UG05 ( 4 104 ) COMPLEX( 11.8K, 0.) 
*****V_UG06 ( 3 103 ) COMPLEX( 13.8K, 0.) 
*****V_UG07 ( 5 101 ) COMPLEX( 13.8K, 0.) 
*****V_UG08 ( 2 100 ) COMPLEX( 13.8K, 0.) 
*****V_UG09 ( 12 116 ) COMPLEX( 13.8K, 0.) 
*****V_UG10 ( 11 115 ) COMPLEX( 13.8K, 0.) 
*****V_UG11 ( 13 113 ) COMPLEX( 13.8K, 0.) 
*****V_UG12 ( 10 112 ) COMPLEX( 13.8K, 0.) 
*****V_UG13 ( 16 122 ) COMPLEX( 13.8K, 0.) 
*****V_UG14 ( 15 121 ) COMPLEX( 13.8K, 0.) 
*****V_UG15 ( 17 119 ) COMPLEX( 13.8K, 0.) 
*****V_UG16 ( 14 118 ) COMPLEX( 13.8K, 0.) 
*****V_UG17 ( 20 128 ) COMPLEX( 13.8K, 0.) 
*****V_UG18 ( 19 127 ) COMPLEX( 13.8K, 0.) 
*****V_UG19 ( 21 125 ) COMPLEX( 13.8K, 0.) 
*****V_UG20 ( 18 124 ) COMPLEX( 13.8K, 0.) 
*****V_UG21 ( 24 134 ) COMPLEX( 13.8K, 0.) 
*****V_UG22 ( 23 133 ) COMPLEX( 13.8K, 0.) 
*****V_UG23 ( 25 131 ) COMPLEX( 13.8K, 0.) 
*****V_UG24 ( 22 130 ) COMPLEX( 13.8K, 0.) 
*****V_UG25 ( 28 140 ) COMPLEX( 13.8K, 0.) 
*****V_UG26 ( 27 139 ) COMPLEX( 13.8K, 0.) 
*****V_UG27 ( 29 137 ) COMPLEX( 13.8K, 0.) 
*****V_UG28 ( 26 136 ) COMPLEX( 13.8K, 0.) 
*****V_UG29 ( 32 158 ) COMPLEX( 13.8K, 0.) 
*****V_UG30 ( 31 157 ) COMPLEX( 13.8K, 0.) 
*****V_UG31 ( 33 155 ) COMPLEX( 13.8K, 0.) 
*****V_UG32 ( 30 154 ) COMPLEX( 13.8K, 0.) 
*****V_UG33 ( 36 152 ) COMPLEX( 13.8K, 0.) 
*****V_UG34 ( 35 151 ) COMPLEX( 13.8K, 0.) 
*****V_UG35 ( 37 149 ) COMPLEX( 13.8K, 0.) 
*****V_UG36 ( 34 148 ) COMPLEX( 13.8K, 0.) 
*****V_UG37 ( 40 146 ) COMPLEX( 13.8K, 0.) 
*****V_UG38 ( 39 145 ) COMPLEX( 13.8K, 0.) 
*****V_UG39 ( 41 143 ) COMPLEX( 13.8K, 0.) 
*****V_UG40 ( 38 142 ) COMPLEX( 13.8K, 0.) 
*****V_UG41 ( 44 98 ) COMPLEX( 13.8K, 0.) 
*****V_UG42 ( 43 97 ) COMPLEX( 13.8K, 0.) 
*****V_UG43 ( 45 95 ) COMPLEX( 13.8K, 0.) 
*****V_UG44 ( 42 94 ) COMPLEX( 13.8K, 0.) 
*****V_UG45 ( 48 92 ) COMPLEX( 13.8K, 0.) 
*****V_UG46 ( 47 91 ) COMPLEX( 13.8K, 0.) 
*****V_UG47 ( 49 89 ) COMPLEX( 13.8K, 0.) 
*****V_UG48 ( 46 88 ) COMPLEX( 13.8K, 0.) 
********* Inverted phase (180.0) V_UG49 ( 161 86 ) ( 161 86 ) COMPLEX( 13.8K, 0.) 
*****V_UG49 ( 86 161 ) COMPLEX( 13.8K, 0.) 
********* Inverted phase (180.0) V_UG50 ( 1 84 ) ( 1 84 ) COMPLEX( 13.8K, 0.) 
*****V_UG50 ( 84 1 ) COMPLEX( 13.8K, 0.) 
X_T01 ( 105 108 242 )  MONOPHASIC_TRANSFORMER_525K
X_T02 ( 99 102 244 )  MONOPHASIC_TRANSFORMER_525K
X_T03 ( 111 114 266 )  MONOPHASIC_TRANSFORMER_525K
X_T04 ( 117 120 265 )  MONOPHASIC_TRANSFORMER_525K
X_T05 ( 123 126 263 )  MONOPHASIC_TRANSFORMER_525K
X_T06 ( 129 132 260 )  MONOPHASIC_TRANSFORMER_525K
X_T07 ( 135 138 259 )  MONOPHASIC_TRANSFORMER_525K
X_T08 ( 153 156 257 )  MONOPHASIC_TRANSFORMER_525K
X_T09 ( 147 150 255 )  MONOPHASIC_TRANSFORMER_525K
X_T10 ( 141 144 253 )  MONOPHASIC_TRANSFORMER_525K
X_T11 ( 93 96 250 )  MONOPHASIC_TRANSFORMER_525K
X_T12 ( 87 90 249 )  MONOPHASIC_TRANSFORMER_525K
X_T13 ( 83 85 247 )  MONOPHASIC_TRANSFORMER_525K
***R_LT3_METER ( 52 268 )  200.n 
***R_LT2_METER ( 54 270 )  200.n 
R_LT3_METER ( 3600 268 )  200.n
R_LT3_METER1 ( 52 3599 )  100.n
R_LT2_METER ( 3598 270 )  200.n
R_LT2_METER1 ( 54 3597 )  100.n
R_LT1_METER ( 3595 269 )  200.n
R_LT1_METER1 ( 53 3596 )  100.n
* 
X_LT1 ( 3596 3595 )  LT_LT1_LT2
X_LT2 ( 3597 3598 )  LT_LT1_LT2
X_LT3 ( 3599 3600 )  LT_LT1_LT2
* 
* Infinite grid/bar; power or current depend on V_Grid: 
R_Grid_SWITCH ( 50 273 )  100.n
V_Grid ( 271 0 ) COMPLEX( 302.776K,-245.06K)
* Reactance Xss at the secondary: Xss = 0.43*(525/13.8)^2 = 622.34168241966 
R_Grid ( 271 273 ) COMPLEX( 0.0144731, 622.342)
* 
* Radial. finite grid/bar: 
R_LOAD_BARRA_B ( 0 272 ) COMPLEX( 30.4697K,-217.775)
R_LOAD_BARRA_B_SWITCH ( 0 0 )  1.E+12
* -------------------------------------------------------------------------------- 
* Netlist: Auxiliares CA Geral 
R_S891xxQCE11 ( 274 368 )  100.n
R_S891xxQCE12 ( 275 375 )  100.n
R_D52CARGAxxQCMAC2 ( 0 353 ) COMPLEX( 387.2, 0.)
R_D52CARGAxxQCMAC1 ( 0 525 ) COMPLEX( 387.2, 0.)
******R_D52206CARGAxxQCM10 ( 0 458 ) COMPLEX( 387.2, 0.) 
******R_D52205CARGAxxQCM10 ( 0 485 ) COMPLEX( 387.2, 0.) 
******R_D52204CARGAxxQCM10 ( 0 482 ) COMPLEX( 387.2, 0.) 
******R_D52203CARGAxxQCM10 ( 0 483 ) COMPLEX( 387.2, 0.) 
******R_D52202CARGAxxQCM10 ( 0 484 ) COMPLEX( 387.2, 0.) 
******R_D52201CARGAxxQCM10 ( 0 481 ) COMPLEX( 387.2, 0.) 
******R_D52106CARGAxxQCM10 ( 0 480 ) COMPLEX( 387.2, 0.) 
******R_D52105CARGAxxQCM10 ( 0 478 ) COMPLEX( 387.2, 0.) 
******R_D52104CARGAxxQCM10 ( 0 476 ) COMPLEX( 387.2, 0.) 
******R_D52103CARGAxxQCM10 ( 0 477 ) COMPLEX( 387.2, 0.) 
******R_D52102CARGAxxQCM10 ( 0 479 ) COMPLEX( 387.2, 0.) 
******R_D52101CARGAxxQCM10 ( 0 475 ) COMPLEX( 387.2, 0.) 
******R_D52206CARGAxxQCM9 ( 0 421 ) COMPLEX( 387.2, 0.) 
******R_D52205CARGAxxQCM9 ( 0 496 ) COMPLEX( 387.2, 0.) 
******R_D52204CARGAxxQCM9 ( 0 493 ) COMPLEX( 387.2, 0.) 
******R_D52203CARGAxxQCM9 ( 0 494 ) COMPLEX( 387.2, 0.) 
******R_D52202CARGAxxQCM9 ( 0 495 ) COMPLEX( 387.2, 0.) 
******R_D52201CARGAxxQCM9 ( 0 492 ) COMPLEX( 387.2, 0.) 
******R_D52106CARGAxxQCM9 ( 0 491 ) COMPLEX( 387.2, 0.) 
******R_D52105CARGAxxQCM9 ( 0 489 ) COMPLEX( 387.2, 0.) 
******R_D52104CARGAxxQCM9 ( 0 487 ) COMPLEX( 387.2, 0.) 
******R_D52103CARGAxxQCM9 ( 0 488 ) COMPLEX( 387.2, 0.) 
******R_D52102CARGAxxQCM9 ( 0 490 ) COMPLEX( 387.2, 0.) 
******R_D52101CARGAxxQCM9 ( 0 486 ) COMPLEX( 387.2, 0.) 
******R_D52205CARGAxxQCM8 ( 0 612 ) COMPLEX( 387.2, 0.) 
******R_D52204CARGAxxQCM8 ( 0 609 ) COMPLEX( 387.2, 0.) 
******R_D52203CARGAxxQCM8 ( 0 610 ) COMPLEX( 387.2, 0.) 
******R_D52202CARGAxxQCM8 ( 0 611 ) COMPLEX( 387.2, 0.) 
******R_D52201CARGAxxQCM8 ( 0 608 ) COMPLEX( 387.2, 0.) 
******R_D52106CARGAxxQCM8 ( 0 607 ) COMPLEX( 387.2, 0.) 
******R_D52105CARGAxxQCM8 ( 0 605 ) COMPLEX( 387.2, 0.) 
******R_D52104CARGAxxQCM8 ( 0 603 ) COMPLEX( 387.2, 0.) 
******R_D52103CARGAxxQCM8 ( 0 604 ) COMPLEX( 387.2, 0.) 
******R_D52102CARGAxxQCM8 ( 0 606 ) COMPLEX( 387.2, 0.) 
******R_D52101CARGAxxQCM8 ( 0 602 ) COMPLEX( 387.2, 0.) 
******R_D52206CARGAxxQCM13 ( 0 402 ) COMPLEX( 387.2, 0.) 
******R_D52205CARGAxxQCM13 ( 0 395 ) COMPLEX( 387.2, 0.) 
******R_D52204CARGAxxQCM13 ( 0 406 ) COMPLEX( 387.2, 0.) 
******R_D52203CARGAxxQCM13 ( 0 403 ) COMPLEX( 387.2, 0.) 
******R_D52202CARGAxxQCM13 ( 0 404 ) COMPLEX( 387.2, 0.) 
******R_D52201CARGAxxQCM13 ( 0 405 ) COMPLEX( 387.2, 0.) 
******R_D52106CARGAxxQCM13 ( 0 401 ) COMPLEX( 387.2, 0.) 
******R_D52105CARGAxxQCM13 ( 0 399 ) COMPLEX( 387.2, 0.) 
******R_D52104CARGAxxQCM13 ( 0 397 ) COMPLEX( 387.2, 0.) 
******R_D52103CARGAxxQCM13 ( 0 398 ) COMPLEX( 387.2, 0.) 
******R_D52102CARGAxxQCM13 ( 0 400 ) COMPLEX( 387.2, 0.) 
******R_D52101CARGAxxQCM13 ( 0 396 ) COMPLEX( 387.2, 0.) 
******R_D52206CARGAxxQCM12 ( 0 407 ) COMPLEX( 387.2, 0.) 
******R_D52205CARGAxxQCM12 ( 0 418 ) COMPLEX( 387.2, 0.) 
******R_D52204CARGAxxQCM12 ( 0 415 ) COMPLEX( 387.2, 0.) 
******R_D52203CARGAxxQCM12 ( 0 416 ) COMPLEX( 387.2, 0.) 
******R_D52202CARGAxxQCM12 ( 0 417 ) COMPLEX( 387.2, 0.) 
******R_D52201CARGAxxQCM12 ( 0 414 ) COMPLEX( 387.2, 0.) 
******R_D52106CARGAxxQCM12 ( 0 413 ) COMPLEX( 387.2, 0.) 
******R_D52105CARGAxxQCM12 ( 0 411 ) COMPLEX( 387.2, 0.) 
******R_D52104CARGAxxQCM12 ( 0 409 ) COMPLEX( 387.2, 0.) 
******R_D52103CARGAxxQCM12 ( 0 410 ) COMPLEX( 387.2, 0.) 
******R_D52102CARGAxxQCM12 ( 0 412 ) COMPLEX( 387.2, 0.) 
******R_D52101CARGAxxQCM12 ( 0 408 ) COMPLEX( 387.2, 0.) 
******R_D52205CARGAxxQCM11 ( 0 543 ) COMPLEX( 387.2, 0.) 
******R_D52204CARGAxxQCM11 ( 0 540 ) COMPLEX( 387.2, 0.) 
******R_D52203CARGAxxQCM11 ( 0 541 ) COMPLEX( 387.2, 0.) 
******R_D52202CARGAxxQCM11 ( 0 542 ) COMPLEX( 387.2, 0.) 
******R_D52201CARGAxxQCM11 ( 0 539 ) COMPLEX( 387.2, 0.) 
******R_D52106CARGAxxQCM11 ( 0 538 ) COMPLEX( 387.2, 0.) 
******R_D52105CARGAxxQCM11 ( 0 536 ) COMPLEX( 387.2, 0.) 
******R_D52104CARGAxxQCM11 ( 0 534 ) COMPLEX( 387.2, 0.) 
******R_D52103CARGAxxQCM11 ( 0 535 ) COMPLEX( 387.2, 0.) 
******R_D52102CARGAxxQCM11 ( 0 537 ) COMPLEX( 387.2, 0.) 
******R_D52101CARGAxxQCM11 ( 0 533 ) COMPLEX( 387.2, 0.) 
R_D52CARGAxxTSVT2 ( 0 320 ) COMPLEX( 387.2, 0.)
R_D52CARGAxxCDTSB4 ( 0 276 ) COMPLEX( 387.2, 0.)
R_D52CARGAxxTSVT1 ( 0 342 ) COMPLEX( 387.2, 0.)
R_D52CARGAxxCDTSB3 ( 0 277 ) COMPLEX( 387.2, 0.)
*******R_D52206CARGAxxQCM7 ( 0 544 ) COMPLEX( 387.2, 0.) 
*******R_D52205CARGAxxQCM7 ( 0 554 ) COMPLEX( 387.2, 0.) 
*******R_D52203CARGAxxQCM7 ( 0 552 ) COMPLEX( 387.2, 0.) 
*******R_D52202CARGAxxQCM7 ( 0 553 ) COMPLEX( 387.2, 0.) 
*******R_D52201CARGAxxQCM7 ( 0 551 ) COMPLEX( 387.2, 0.) 
*******R_D52106CARGAxxQCM7 ( 0 550 ) COMPLEX( 387.2, 0.) 
*******R_D52105CARGAxxQCM7 ( 0 548 ) COMPLEX( 387.2, 0.) 
*******R_D52104CARGAxxQCM7 ( 0 546 ) COMPLEX( 387.2, 0.) 
*******R_D52103CARGAxxQCM7 ( 0 547 ) COMPLEX( 387.2, 0.) 
*******R_D52102CARGAxxQCM7 ( 0 549 ) COMPLEX( 387.2, 0.) 
*******R_D52101CARGAxxQCM7 ( 0 545 ) COMPLEX( 387.2, 0.) 
*******R_D52206CARGAxxQCM6 ( 0 555 ) COMPLEX( 387.2, 0.) 
*******R_D52205CARGAxxQCM6 ( 0 566 ) COMPLEX( 387.2, 0.) 
*******R_D52204CARGAxxQCM6 ( 0 563 ) COMPLEX( 387.2, 0.) 
*******R_D52203CARGAxxQCM6 ( 0 564 ) COMPLEX( 387.2, 0.) 
*******R_D52202CARGAxxQCM6 ( 0 565 ) COMPLEX( 387.2, 0.) 
*******R_D52201CARGAxxQCM6 ( 0 562 ) COMPLEX( 387.2, 0.) 
*******R_D52106CARGAxxQCM6 ( 0 561 ) COMPLEX( 387.2, 0.) 
*******R_D52105CARGAxxQCM6 ( 0 559 ) COMPLEX( 387.2, 0.) 
*******R_D52104CARGAxxQCM6 ( 0 557 ) COMPLEX( 387.2, 0.) 
*******R_D52103CARGAxxQCM6 ( 0 558 ) COMPLEX( 387.2, 0.) 
*******R_D52102CARGAxxQCM6 ( 0 560 ) COMPLEX( 387.2, 0.) 
*******R_D52101CARGAxxQCM6 ( 0 556 ) COMPLEX( 387.2, 0.) 
*******R_D52206CARGAxxQCM5 ( 0 567 ) COMPLEX( 387.2, 0.) 
*******R_D52205CARGAxxQCM5 ( 0 578 ) COMPLEX( 387.2, 0.) 
*******R_D52204CARGAxxQCM5 ( 0 575 ) COMPLEX( 387.2, 0.) 
*******R_D52203CARGAxxQCM5 ( 0 576 ) COMPLEX( 387.2, 0.) 
*******R_D52202CARGAxxQCM5 ( 0 577 ) COMPLEX( 387.2, 0.) 
*******R_D52201CARGAxxQCM5 ( 0 574 ) COMPLEX( 387.2, 0.) 
*******R_D52106CARGAxxQCM5 ( 0 573 ) COMPLEX( 387.2, 0.) 
*******R_D52105CARGAxxQCM5 ( 0 571 ) COMPLEX( 387.2, 0.) 
*******R_D52104CARGAxxQCM5 ( 0 569 ) COMPLEX( 387.2, 0.) 
*******R_D52103CARGAxxQCM5 ( 0 570 ) COMPLEX( 387.2, 0.) 
*******R_D52102CARGAxxQCM5 ( 0 572 ) COMPLEX( 387.2, 0.) 
*******R_D52101CARGAxxQCM5 ( 0 568 ) COMPLEX( 387.2, 0.) 
R_D52CARGAxxQCME2 ( 0 432 ) COMPLEX( 387.2, 0.)
*******R_D52205CARGAxxQCM4 ( 0 622 ) COMPLEX( 387.2, 0.) 
*******R_D52204CARGAxxQCM4 ( 0 619 ) COMPLEX( 387.2, 0.) 
*******R_D52203CARGAxxQCM4 ( 0 620 ) COMPLEX( 387.2, 0.) 
*******R_D52202CARGAxxQCM4 ( 0 621 ) COMPLEX( 387.2, 0.) 
*******R_D52201CARGAxxQCM4 ( 0 618 ) COMPLEX( 387.2, 0.) 
*******R_D52105CARGAxxQCM4 ( 0 616 ) COMPLEX( 387.2, 0.) 
*******R_D52104CARGAxxQCM4 ( 0 614 ) COMPLEX( 387.2, 0.) 
*******R_D52103CARGAxxQCM4 ( 0 615 ) COMPLEX( 387.2, 0.) 
*******R_D52102CARGAxxQCM4 ( 0 617 ) COMPLEX( 387.2, 0.) 
*******R_D52101CARGAxxQCM4 ( 0 613 ) COMPLEX( 387.2, 0.) 
*******R_D52206CARGAxxQCM3 ( 0 590 ) COMPLEX( 387.2, 0.) 
*******R_D52205CARGAxxQCM3 ( 0 601 ) COMPLEX( 387.2, 0.) 
*******R_D52204CARGAxxQCM3 ( 0 598 ) COMPLEX( 387.2, 0.) 
*******R_D52203CARGAxxQCM3 ( 0 599 ) COMPLEX( 387.2, 0.) 
*******R_D52202CARGAxxQCM3 ( 0 600 ) COMPLEX( 387.2, 0.) 
*******R_D52201CARGAxxQCM3 ( 0 597 ) COMPLEX( 387.2, 0.) 
*******R_D52106CARGAxxQCM3 ( 0 596 ) COMPLEX( 387.2, 0.) 
*******R_D52105CARGAxxQCM3 ( 0 594 ) COMPLEX( 387.2, 0.) 
*******R_D52104CARGAxxQCM3 ( 0 592 ) COMPLEX( 387.2, 0.) 
*******R_D52103CARGAxxQCM3 ( 0 593 ) COMPLEX( 387.2, 0.) 
*******R_D52102CARGAxxQCM3 ( 0 595 ) COMPLEX( 387.2, 0.) 
*******R_D52101CARGAxxQCM3 ( 0 591 ) COMPLEX( 387.2, 0.) 
*******R_D52206CARGAxxQCM2 ( 0 454 ) COMPLEX( 387.2, 0.) 
*******R_D52205CARGAxxQCM2 ( 0 589 ) COMPLEX( 387.2, 0.) 
*******R_D52204CARGAxxQCM2 ( 0 586 ) COMPLEX( 387.2, 0.) 
*******R_D52203CARGAxxQCM2 ( 0 587 ) COMPLEX( 387.2, 0.) 
*******R_D52202CARGAxxQCM2 ( 0 588 ) COMPLEX( 387.2, 0.) 
*******R_D52201CARGAxxQCM2 ( 0 585 ) COMPLEX( 387.2, 0.) 
*******R_D52106CARGAxxQCM2 ( 0 584 ) COMPLEX( 387.2, 0.) 
*******R_D52105CARGAxxQCM2 ( 0 582 ) COMPLEX( 387.2, 0.) 
*******R_D52104CARGAxxQCM2 ( 0 580 ) COMPLEX( 387.2, 0.) 
*******R_D52103CARGAxxQCM2 ( 0 581 ) COMPLEX( 387.2, 0.) 
*******R_D52102CARGAxxQCM2 ( 0 583 ) COMPLEX( 387.2, 0.) 
*******R_D52101CARGAxxQCM2 ( 0 579 ) COMPLEX( 387.2, 0.) 
*******R_D52205CARGAxxQCM1 ( 0 638 ) COMPLEX( 387.2, 0.) 
*******R_D52204CARGAxxQCM1 ( 0 635 ) COMPLEX( 387.2, 0.) 
*******R_D52203CARGAxxQCM1 ( 0 636 ) COMPLEX( 387.2, 0.) 
*******R_D52202CARGAxxQCM1 ( 0 637 ) COMPLEX( 387.2, 0.) 
***********R_D52106CARGAxxQCM1 ( 0 633 ) COMPLEX( 387.2, 0.) 
*******R_D52103CARGAxxQCM1 ( 0 629 ) COMPLEX( 387.2, 0.) 
*******R_D52102CARGAxxQCM1 ( 0 632 ) COMPLEX( 387.2, 0.) 
*******R_D52101CARGAxxQCM1 ( 0 625 ) COMPLEX( 387.2, 0.) 
R_D52QLxxQCM11 ( 364 365 )  100.n
X_TSE3 ( 516 511 )  MONOPHASIC_TRANSFORMER_440
R_D52QLxxQCM8 ( 443 444 )  100.n
X_TSB2 ( 456 529 )  MONOPHASIC_REGULATOR
X_TSE2 ( 522 526 )  MONOPHASIC_TRANSFORMER_440
R_D52QEExxQCM2 ( 526 455 )  100.n
R_D52QE1xxQCM2 ( 531 455 )  100.n
X_TSA3 ( 530 531 )  MONOPHASIC_TRANSFORMER_440
R_D52QLxxQCM2 ( 455 453 )  100.n
R_D52QE2xxQCM2 ( 532 453 )  100.n
X_TSA4 ( 528 532 )  MONOPHASIC_TRANSFORMER_440
R_D52QLxxQCM1 ( 623 624 )  100.n
R_D52xxQCGE1 ( 0 0 )  1.E+12
R_D52xxQCGE2 ( 0 0 )  1.E+12
R_D52xxCDG26 ( 0 0 )  1.E+12
R_D52xxCDG25 ( 85 386 )  100.n
X_TSA26 ( 387 388 )  MONOPHASIC_TRANSFORMER_440
X_TSA25 ( 386 385 )  MONOPHASIC_TRANSFORMER_440
R_D52QE2xxQCM13 ( 388 389 )  100.n
R_D52QE1xxQCM13 ( 385 390 )  100.n
R_D52QEExxQCM13 ( 384 390 )  100.n
R_D52QLxxQCM13 ( 389 390 )  100.n
X_TSE13 ( 383 384 )  MONOPHASIC_TRANSFORMER_440
R_S891xxQCE13 ( 382 383 )  100.n
R_S892xxQCE13 ( 374 382 )  100.n
R_S893xxQCE13 ( 0 0 )  1.E+12
R_D52206xxQCM13 ( 389 402 )  100.n
R_D52204xxQCM13 ( 389 406 )  100.n
R_D52205xxQCM13 ( 395 389 )  100.n
R_D52203xxQCM13 ( 389 403 )  100.n
R_D52202xxQCM13 ( 389 404 )  100.n
R_D52201xxQCM13 ( 405 389 )  100.n
R_D52106xxQCM13 ( 390 401 )  100.n
R_D52105xxQCM13 ( 390 399 )  100.n
R_D52104xxQCM13 ( 390 397 )  100.n
R_D52103xxQCM13 ( 0 0 )  1.E+12
R_D52102xxQCM13 ( 390 400 )  100.n
R_D52101xxQCM13 ( 396 390 )  100.n
R_D52QLxxQCM12 ( 362 363 )  100.n
X_TSE7 ( 335 327 )  MONOPHASIC_TRANSFORMER_440